14:56:30 INFO: =================================================================
14:56:30 INFO: CONVERGENCIA CORTA CERCA DE LA FRONTERA
14:56:30 INFO: =================================================================
14:56:30 INFO: prefix: conv3_f05
14:56:30 INFO: caso: dam_h=0.2, mass=1.0, fric=0.5, slope=1:20, rot_z=0.0
14:56:30 INFO: dps: [0.004, 0.003, 0.002]
14:56:30 INFO: csv: C:\Users\Admin\Desktop\SPH-Tesis\data\results\conv3_f05.csv
14:56:30 INFO: gci: C:\Users\Admin\Desktop\SPH-Tesis\data\results\conv3_f05_gci.json
14:56:30 INFO: sqlite table: convergence_conv3_f05
14:56:30 INFO: =================================================================
14:56:30 INFO: ESTUDIO DE CONVERGENCIA v2 — Config nueva (Moris)
14:56:30 INFO: =================================================================
14:56:30 INFO: dp a probar: [0.004, 0.003, 0.002]
14:56:30 INFO: Caso fijo: dam_h=0.2m, mass=1.0kg, fric=0.5, slope=1:20
14:56:30 INFO: Boulder pos: (6.5, 0.5, 0.025)
14:56:30 INFO: Metricas primarias: displacement, velocity, SPH force
14:56:30 INFO: Diagnostico: rotation
14:56:30 INFO: =================================================================
14:56:30 INFO: dsph_bin auto-detected: C:\DualSPHysics_v5.4.3\DualSPHysics_v5.4\bin\windows
14:56:30 INFO: Boulder 'BLIR3.stl' (escala=0.04, rot=(0.0, 0.0, 0.0)):
14:56:30 INFO:   Volumen:     0.00053023 m^3 (0.530 L)
14:56:30 INFO:   Densidad:    1886.0 kg/m^3
14:56:30 INFO:   Centro masa: [-0.019701, 0.011875, 0.018456] m (local)
14:56:30 INFO:   d_eq:        0.1004 m (10.0 cm)
14:56:30 INFO:   Bbox size:   0.1710 x 0.2100 x 0.0399 m
14:56:30 INFO:   dim_min/dp:  (requiere dp para calcular)
14:56:30 INFO: d_eq = 0.100421 m
14:56:30 INFO: 
=================================================================
14:56:30 INFO: [1/3] dp = 0.004
14:56:30 INFO: =================================================================
14:56:30 INFO: Calculando propiedades del boulder para caso 'conv3_f05_dp0004'...
14:56:30 INFO: Boulder 'BLIR3.stl' (escala=0.04, rot=(0.0, 0.0, 0.0)):
14:56:30 INFO:   Volumen:     0.00053023 m^3 (0.530 L)
14:56:30 INFO:   Densidad:    1886.0 kg/m^3
14:56:30 INFO:   Centro masa: [-0.019701, 0.011875, 0.018456] m (local)
14:56:30 INFO:   d_eq:        0.1004 m (10.0 cm)
14:56:30 INFO:   Bbox size:   0.1710 x 0.2100 x 0.0399 m
14:56:30 INFO:   dim_min/dp:  (requiere dp para calcular)
14:56:30 INFO:   dp=0.004m -> dim_min/dp = 10.0 (0.0399m / 0.004m)
14:56:30 WARNING:   ATENCION: Solo 10.0 particulas en la dimension minima del boulder. Recomendado: >=10.
14:56:30 INFO:   Fillbox seed: (6.4803, 0.5119, 0.0435)
14:56:30 INFO:   Reubicando gauges: boulder x=[6.417, 6.588], y=0.512, z_mid=0.044
14:56:30 INFO:     V01: z 0.100 -> 0.0040 (fondo local)
14:56:30 INFO:     V02: z 0.100 -> 0.0040 (fondo local)
14:56:30 INFO:     V03: z 0.100 -> 0.0040 (fondo local)
14:56:30 INFO:     V04: z 0.100 -> 0.0040 (fondo local)
14:56:30 INFO:     V11: z 0.200 -> 0.1790 (fondo local)
14:56:30 INFO:     V05: -> upstream x=6.4130, z=0.0247
14:56:30 INFO:     V06: -> centroide x=6.4803
14:56:30 INFO:     V07: -> downstream x=6.5921, z=0.0336
14:56:30 INFO:     hmax03: y->0.512, z->0.0500, distlimit->0.04
14:56:30 INFO:     hmax04: y->0.512, z->0.1250, distlimit->0.04
14:56:30 INFO:     hmax05: y->0.512, z->0.1625, distlimit->0.04
14:56:30 INFO:   Gauges reubicados: 12 velocity, 8 maxz
14:56:30 INFO:   XML generado: C:\Users\Admin\Desktop\SPH-Tesis\cases\conv3_f05_dp0004\conv3_f05_dp0004_Def.xml
14:56:30 INFO: Generando canal: L_flat=6.0m, L_ramp=9.0m, slope=1:20, H_ramp=0.4500m, L_end=15.0m, W=1.0m, H=1.5m
14:56:30 INFO:   Canal: 10 verts, 12 faces, watertight=False
14:56:30 INFO:   STL guardado: C:\Users\Admin\Desktop\SPH-Tesis\cases\conv3_f05_dp0004\canal_1to20.stl
14:56:30 INFO:   Archivos copiados a C:\Users\Admin\Desktop\SPH-Tesis\cases\conv3_f05_dp0004
14:56:30 INFO:   PNG verificacion: C:\Users\Admin\Desktop\SPH-Tesis\cases\conv3_f05_dp0004\canal_verificacion.png
14:56:30 INFO:   [1/3] Geometry OK
14:56:30 INFO:   Timeout: sin limite (dp=0.004)
14:56:30 INFO: === Ejecutando caso: conv3_f05_dp0004 ===
14:56:30 INFO:   [conv3_f05_dp0004] GenCase: C:\DualSPHysics_v5.4.3\DualSPHysics_v5.4\bin\windows\GenCase_win64.exe conv3_f05_dp0004_Def conv3_f05_dp0004_out/conv3_f05_dp0004 -save:all
14:56:33 INFO:   [conv3_f05_dp0004] DualSPHysics: C:\DualSPHysics_v5.4.3\DualSPHysics_v5.4\bin\windows\DualSPHysics5.4_win64.exe -gpu:0 conv3_f05_dp0004_out/conv3_f05_dp0004 conv3_f05_dp0004_out
15:01:26 INFO:   [conv3_f05_dp0004] Limpieza desactivada (cleanup_binaries=false)
15:01:26 INFO:   [conv3_f05_dp0004] Duracion total: 295.5s
