22:14:57 INFO: =================================================================
22:14:57 INFO: CONVERGENCIA CORTA CERCA DE LA FRONTERA
22:14:57 INFO: =================================================================
22:14:57 INFO: prefix: scout_fix2_f0665_dp0004
22:14:57 INFO: caso: dam_h=0.2, mass=1.0, fric=0.665, slope=1:20, rot_z=0.0
22:14:57 INFO: dps: [0.004]
22:14:57 INFO: csv: C:\Users\Admin\Desktop\SPH-Tesis\data\results\scout_fix2_f0665_dp0004.csv
22:14:57 INFO: gci: C:\Users\Admin\Desktop\SPH-Tesis\data\results\scout_fix2_f0665_dp0004_gci.json
22:14:57 INFO: sqlite table: convergence_scout_fix2_f0665_dp0004
22:14:57 INFO: =================================================================
22:14:57 INFO: ESTUDIO DE CONVERGENCIA v2 — Config nueva (Moris)
22:14:57 INFO: =================================================================
22:14:57 INFO: dp a probar: [0.004]
22:14:57 INFO: Caso fijo: dam_h=0.2m, mass=1.0kg, fric=0.665, slope=1:20
22:14:57 INFO: Boulder pos: (6.5, 0.5, 0.025)
22:14:57 INFO: Metricas primarias: displacement, velocity, SPH force
22:14:57 INFO: Diagnostico: rotation
22:14:57 INFO: =================================================================
22:14:57 INFO: dsph_bin auto-detected: C:\DualSPHysics_v5.4.3\DualSPHysics_v5.4\bin\windows
22:14:57 INFO: Boulder 'BLIR3.stl' (escala=0.04, rot=(0.0, -2.862405226111748, 0.0)):
22:14:57 INFO:   Volumen:     0.00053023 m^3 (0.530 L)
22:14:57 INFO:   Densidad:    1886.0 kg/m^3
22:14:57 INFO:   Centro masa: [-0.020598, 0.011875, 0.017449] m (local)
22:14:57 INFO:   d_eq:        0.1004 m (10.0 cm)
22:14:57 INFO:   Bbox size:   0.1706 x 0.2100 x 0.0429 m
22:14:57 INFO:   dim_min/dp:  (requiere dp para calcular)
22:14:57 INFO: d_eq = 0.100421 m
22:14:57 INFO: 
=================================================================
22:14:57 INFO: [1/1] dp = 0.004
22:14:57 INFO: =================================================================
22:14:57 INFO: Calculando propiedades del boulder para caso 'scout_fix2_f0665_dp0004_dp0004'...
22:14:57 INFO: Boulder 'BLIR3.stl' (escala=0.04, rot=(0.0, -2.862405226111748, 0.0)):
22:14:57 INFO:   Volumen:     0.00053023 m^3 (0.530 L)
22:14:57 INFO:   Densidad:    1886.0 kg/m^3
22:14:57 INFO:   Centro masa: [-0.020598, 0.011875, 0.017449] m (local)
22:14:57 INFO:   d_eq:        0.1004 m (10.0 cm)
22:14:57 INFO:   Bbox size:   0.1706 x 0.2100 x 0.0429 m
22:14:57 INFO:   dim_min/dp:  (requiere dp para calcular)
22:14:57 INFO:   Ajuste apoyo boulder: elevando 0.508 mm para dejar contacto exacto con la playa
22:14:57 INFO:   dp=0.004m -> dim_min/dp = 10.7 (0.0429m / 0.004m)
22:14:57 INFO:   Fillbox seed: (6.4794, 0.5119, 0.0430)
22:14:57 INFO:   Reubicando gauges: boulder x=[6.417, 6.587], y=0.512, z_mid=0.043
22:14:57 INFO:     V01: z 0.100 -> 0.0040 (fondo local)
22:14:57 INFO:     V02: z 0.100 -> 0.0040 (fondo local)
22:14:57 INFO:     V03: z 0.100 -> 0.0040 (fondo local)
22:14:57 INFO:     V04: z 0.100 -> 0.0040 (fondo local)
22:14:57 INFO:     V11: z 0.200 -> 0.1790 (fondo local)
22:14:57 INFO:     V05: -> upstream x=6.4129, z=0.0246
22:14:57 INFO:     V06: -> centroide x=6.4794
22:14:57 INFO:     V07: -> downstream x=6.5914, z=0.0336
22:14:57 INFO:     hmax03: y->0.512, z->0.0500, distlimit->0.04
22:14:57 INFO:     hmax04: y->0.512, z->0.1250, distlimit->0.04
22:14:57 INFO:     hmax05: y->0.512, z->0.1625, distlimit->0.04
22:14:57 INFO:   Gauges reubicados: 12 velocity, 8 maxz
22:14:57 INFO:   XML generado: C:\Users\Admin\Desktop\SPH-Tesis\cases\scout_fix2_f0665_dp0004_dp0004\scout_fix2_f0665_dp0004_dp0004_Def.xml
22:14:57 INFO: Generando canal: L_flat=6.0m, L_ramp=9.0m, slope=1:20, H_ramp=0.4500m, L_end=15.0m, W=1.0m, H=1.5m
22:14:57 INFO:   Canal: 10 verts, 12 faces, watertight=False
22:14:57 INFO:   STL guardado: C:\Users\Admin\Desktop\SPH-Tesis\cases\scout_fix2_f0665_dp0004_dp0004\canal_1to20.stl
22:14:57 INFO:   Archivos copiados a C:\Users\Admin\Desktop\SPH-Tesis\cases\scout_fix2_f0665_dp0004_dp0004
22:14:58 INFO:   PNG verificacion: C:\Users\Admin\Desktop\SPH-Tesis\cases\scout_fix2_f0665_dp0004_dp0004\canal_verificacion.png
22:14:58 INFO:   [1/3] Geometry OK
22:14:58 INFO:   Timeout: sin limite (dp=0.004)
22:14:58 INFO: === Ejecutando caso: scout_fix2_f0665_dp0004_dp0004 ===
22:14:58 INFO:   [scout_fix2_f0665_dp0004_dp0004] GenCase: C:\DualSPHysics_v5.4.3\DualSPHysics_v5.4\bin\windows\GenCase_win64.exe scout_fix2_f0665_dp0004_dp0004_Def scout_fix2_f0665_dp0004_dp0004_out/scout_fix2_f0665_dp0004_dp0004 -save:all
22:15:01 INFO:   [scout_fix2_f0665_dp0004_dp0004] DualSPHysics: C:\DualSPHysics_v5.4.3\DualSPHysics_v5.4\bin\windows\DualSPHysics5.4_win64.exe -gpu:0 scout_fix2_f0665_dp0004_dp0004_out/scout_fix2_f0665_dp0004_dp0004 scout_fix2_f0665_dp0004_dp0004_out
23:44:37 INFO:   CSVs recolectados (24): ChronoBody_forces.csv, ChronoExchange_mkbound_51.csv, GaugesMaxZ_hmax01.csv, GaugesMaxZ_hmax02.csv, GaugesMaxZ_hmax03.csv...
23:44:37 INFO:   [scout_fix2_f0665_dp0004_dp0004] Simulacion completada exitosamente
23:44:37 INFO:   [scout_fix2_f0665_dp0004_dp0004] Limpieza desactivada (cleanup_binaries=false)
23:44:37 INFO:   [scout_fix2_f0665_dp0004_dp0004] Duracion total: 5379.4s
23:44:37 INFO:   [2/3] Sim OK (5379s)
23:44:37 INFO: Procesando caso: scout_fix2_f0665_dp0004_dp0004
23:44:37 INFO:   ChronoExchange: 9500 filas, t=[0.5000, 9.9990]s
23:44:37 INFO:   Desplazamiento max: 0.014119m (14.06% de d_eq=0.1004m)
23:44:37 INFO:   Rotacion max: 6.02 grados
23:44:37 INFO:   Velocidad max boulder: 0.1000 m/s
23:44:37 INFO:   ChronoBody_forces: 9500 filas, bodies: {'blir', 'beach'}
23:44:37 INFO:   Fuerza SPH max: 16.5002N, Contacto max: 2770.5723N
23:44:37 INFO:   Gauges: 12 velocity, 8 maxZ
23:44:37 INFO:   Flujo max (gauge V06, dist=0.00m): 0.0000 m/s
23:44:37 INFO:   Agua max (gauge hmax04, dist=1.02m): 0.1274m
23:44:37 INFO:   Criterio: FALLO (movimiento) (umbral disp=5.0% d_eq=0.0050m, rot=5.0 deg)
23:44:37 INFO:   [3/3] Analisis OK - 89.7 min total
23:44:37 INFO:   SQLite: columna 'friction_coefficient' agregada a tabla 'convergence_scout_fix2_f0665_dp0004'
23:44:37 INFO:   SQLite: columna 'slope_inv' agregada a tabla 'convergence_scout_fix2_f0665_dp0004'
23:44:37 INFO: SQLite: 1 resultados guardados en C:\Users\Admin\Desktop\SPH-Tesis\data\results.sqlite:convergence_scout_fix2_f0665_dp0004
23:44:37 INFO: 
=================================================================
23:44:37 INFO: RESUMEN CONVERGENCIA
23:44:37 INFO: =================================================================
23:44:37 INFO:       dp          Np    MemGPU     disp(m)     d%   vel(m/s)     d%    Fsph(N)     d%   rot(deg)    t(min)
23:44:37 INFO: ----------------------------------------------------------------------------------------------------------
23:44:37 INFO:   0.0040     8152043     1.5GB    0.014119            0.1000           16.5002              6.02      89.7
23:44:37 INFO: 
1/1 exitosos, total 89.7 min
23:44:37 INFO: CSV: C:\Users\Admin\Desktop\SPH-Tesis\data\results\scout_fix2_f0665_dp0004.csv
