15:23:57 INFO: =================================================================
15:23:57 INFO: CONVERGENCIA CORTA CERCA DE LA FRONTERA
15:23:57 INFO: =================================================================
15:23:57 INFO: prefix: conv_repeat_dp003_f0681_r2
15:23:57 INFO: caso: dam_h=0.2, mass=1.0, fric=0.681, slope=1:20, rot_z=0.0
15:23:57 INFO: dps: [0.003]
15:23:57 INFO: csv: C:\Users\Admin\Desktop\SPH-Tesis\data\results\conv_repeat_dp003_f0681_r2.csv
15:23:57 INFO: gci: C:\Users\Admin\Desktop\SPH-Tesis\data\results\conv_repeat_dp003_f0681_r2_gci.json
15:23:57 INFO: sqlite table: convergence_conv_repeat_dp003_f0681_r2
15:23:57 INFO: criterion: mode=displacement_only, reference_time=None
15:23:57 INFO: =================================================================
15:23:57 INFO: ESTUDIO DE CONVERGENCIA v2 — Config nueva (Moris)
15:23:57 INFO: =================================================================
15:23:57 INFO: dp a probar: [0.003]
15:23:57 INFO: Caso fijo: dam_h=0.2m, mass=1.0kg, fric=0.681, slope=1:20
15:23:57 INFO: Boulder pos: (6.5, 0.5, 0.025)
15:23:57 INFO: Metricas primarias: displacement, velocity, SPH force
15:23:57 INFO: Diagnostico: rotation
15:23:57 INFO: Process case kwargs: {'classification_mode': 'displacement_only', 'reference_time_s': None}
15:23:57 INFO: =================================================================
15:23:57 INFO: dsph_bin auto-detected: C:\DualSPHysics_v5.4.3\DualSPHysics_v5.4\bin\windows
15:23:57 INFO: Boulder 'BLIR3.stl' (escala=0.04, rot=(0.0, -2.862405226111748, 0.0)):
15:23:57 INFO:   Volumen:     0.00053023 m^3 (0.530 L)
15:23:57 INFO:   Densidad:    1886.0 kg/m^3
15:23:57 INFO:   Centro masa: [-0.020598, 0.011875, 0.017449] m (local)
15:23:57 INFO:   d_eq:        0.1004 m (10.0 cm)
15:23:57 INFO:   Bbox size:   0.1706 x 0.2100 x 0.0429 m
15:23:57 INFO:   dim_min/dp:  (requiere dp para calcular)
15:23:57 INFO: d_eq = 0.100421 m
15:23:57 INFO: 
=================================================================
15:23:57 INFO: [1/1] dp = 0.003
15:23:57 INFO: =================================================================
15:23:57 INFO: Calculando propiedades del boulder para caso 'conv_repeat_dp003_f0681_r2_dp0003'...
15:23:57 INFO: Boulder 'BLIR3.stl' (escala=0.04, rot=(0.0, -2.862405226111748, 0.0)):
15:23:57 INFO:   Volumen:     0.00053023 m^3 (0.530 L)
15:23:57 INFO:   Densidad:    1886.0 kg/m^3
15:23:57 INFO:   Centro masa: [-0.020598, 0.011875, 0.017449] m (local)
15:23:57 INFO:   d_eq:        0.1004 m (10.0 cm)
15:23:57 INFO:   Bbox size:   0.1706 x 0.2100 x 0.0429 m
15:23:57 INFO:   dim_min/dp:  (requiere dp para calcular)
15:23:57 INFO:   Ajuste apoyo boulder: elevando 0.508 mm para dejar contacto exacto con la playa
15:23:57 INFO:   dp=0.003m -> dim_min/dp = 14.3 (0.0429m / 0.003m)
15:23:57 INFO:   Fillbox seed: (6.4794, 0.5119, 0.0430)
15:23:57 INFO:   Reubicando gauges: boulder x=[6.417, 6.587], y=0.512, z_mid=0.043
15:23:57 INFO:     V01: z 0.100 -> 0.0030 (fondo local)
15:23:57 INFO:     V02: z 0.100 -> 0.0030 (fondo local)
15:23:57 INFO:     V03: z 0.100 -> 0.0030 (fondo local)
15:23:57 INFO:     V04: z 0.100 -> 0.0030 (fondo local)
15:23:57 INFO:     V11: z 0.200 -> 0.1780 (fondo local)
15:23:57 INFO:     V05: -> upstream x=6.4139, z=0.0237
15:23:57 INFO:     V06: -> centroide x=6.4794
15:23:57 INFO:     V07: -> downstream x=6.5904, z=0.0325
15:23:57 INFO:     hmax03: y->0.512, z->0.0500, distlimit->0.04
15:23:57 INFO:     hmax04: y->0.512, z->0.1250, distlimit->0.04
15:23:57 INFO:     hmax05: y->0.512, z->0.1625, distlimit->0.04
15:23:57 INFO:   Gauges reubicados: 12 velocity, 8 maxz
15:23:57 INFO:   XML generado: C:\Users\Admin\Desktop\SPH-Tesis\cases\conv_repeat_dp003_f0681_r2_dp0003\conv_repeat_dp003_f0681_r2_dp0003_Def.xml
15:23:57 INFO: Generando canal: L_flat=6.0m, L_ramp=9.0m, slope=1:20, H_ramp=0.4500m, L_end=15.0m, W=1.0m, H=1.5m
15:23:57 INFO:   Canal: 10 verts, 12 faces, watertight=False
15:23:57 INFO:   STL guardado: C:\Users\Admin\Desktop\SPH-Tesis\cases\conv_repeat_dp003_f0681_r2_dp0003\canal_1to20.stl
15:23:57 INFO:   Archivos copiados a C:\Users\Admin\Desktop\SPH-Tesis\cases\conv_repeat_dp003_f0681_r2_dp0003
15:23:57 INFO:   PNG verificacion: C:\Users\Admin\Desktop\SPH-Tesis\cases\conv_repeat_dp003_f0681_r2_dp0003\canal_verificacion.png
15:23:57 INFO:   [1/3] Geometry OK
15:23:57 INFO:   Timeout: sin limite (dp=0.003)
15:23:57 INFO: === Ejecutando caso: conv_repeat_dp003_f0681_r2_dp0003 ===
15:23:57 INFO:   [conv_repeat_dp003_f0681_r2_dp0003] GenCase: C:\DualSPHysics_v5.4.3\DualSPHysics_v5.4\bin\windows\GenCase_win64.exe conv_repeat_dp003_f0681_r2_dp0003_Def conv_repeat_dp003_f0681_r2_dp0003_out/conv_repeat_dp003_f0681_r2_dp0003 -save:all
15:24:04 INFO:   [conv_repeat_dp003_f0681_r2_dp0003] DualSPHysics: C:\DualSPHysics_v5.4.3\DualSPHysics_v5.4\bin\windows\DualSPHysics5.4_win64.exe -gpu:0 conv_repeat_dp003_f0681_r2_dp0003_out/conv_repeat_dp003_f0681_r2_dp0003 conv_repeat_dp003_f0681_r2_dp0003_out
19:32:26 INFO:   CSVs recolectados (24): ChronoBody_forces.csv, ChronoExchange_mkbound_51.csv, GaugesMaxZ_hmax01.csv, GaugesMaxZ_hmax02.csv, GaugesMaxZ_hmax03.csv...
19:32:26 INFO:   [conv_repeat_dp003_f0681_r2_dp0003] Simulacion completada exitosamente
19:32:26 INFO:   [conv_repeat_dp003_f0681_r2_dp0003] Limpieza desactivada (cleanup_binaries=false)
19:32:26 INFO:   [conv_repeat_dp003_f0681_r2_dp0003] Duracion total: 14908.7s
19:32:26 INFO:   [2/3] Sim OK (14909s)
19:32:26 INFO: Procesando caso: conv_repeat_dp003_f0681_r2_dp0003
19:32:26 INFO:   ChronoExchange: 9500 filas, t=[0.5000, 9.9990]s
19:32:26 INFO:   Desplazamiento max: 0.004296m (4.28% de d_eq=0.1004m)
19:32:26 INFO:   Rotacion acumulada max: 5.20 grados
19:32:26 INFO:   Velocidad max boulder: 0.1000 m/s
19:32:26 INFO:   ChronoBody_forces: 9500 filas, bodies: {'beach', 'blir'}
19:32:26 INFO:   Fuerza SPH max: 8.3522N, Contacto max: 10752.8337N
19:32:26 INFO:   Gauges: 12 velocity, 8 maxZ
19:32:26 INFO:   Flujo max (gauge V05, dist=0.07m): 0.7299 m/s
19:32:26 INFO:   Agua max (gauge hmax03, dist=1.23m): 0.0682m
19:32:26 INFO:   Criterio (displacement_only): ESTABLE (umbral disp=5.0% d_eq=0.0050m, rot=5.0 deg)
19:32:26 INFO:   Flags criterio: moved=False, rotated=True
19:32:26 INFO:   [3/3] Analisis OK - 248.5 min total
19:32:26 INFO: SQLite: 1 resultados guardados en C:\Users\Admin\Desktop\SPH-Tesis\data\results.sqlite:convergence_conv_repeat_dp003_f0681_r2
19:32:26 INFO: 
=================================================================
19:32:26 INFO: RESUMEN CONVERGENCIA
19:32:26 INFO: =================================================================
19:32:26 INFO:       dp          Np    MemGPU     disp(m)     d%   vel(m/s)     d%    Fsph(N)     d%   rot(deg)    t(min)
19:32:26 INFO: ----------------------------------------------------------------------------------------------------------
19:32:26 INFO:   0.0030    17525854     3.3GB    0.004296            0.1000            8.3522              5.20     248.5
19:32:26 INFO: 
1/1 exitosos, total 248.5 min
19:32:26 INFO: CSV: C:\Users\Admin\Desktop\SPH-Tesis\data\results\conv_repeat_dp003_f0681_r2.csv
