19:32:27 INFO: =================================================================
19:32:27 INFO: CONVERGENCIA CORTA CERCA DE LA FRONTERA
19:32:27 INFO: =================================================================
19:32:27 INFO: prefix: conv_repeat_dp002_f0680_r2
19:32:27 INFO: caso: dam_h=0.2, mass=1.0, fric=0.68, slope=1:20, rot_z=0.0
19:32:27 INFO: dps: [0.002]
19:32:27 INFO: csv: C:\Users\Admin\Desktop\SPH-Tesis\data\results\conv_repeat_dp002_f0680_r2.csv
19:32:27 INFO: gci: C:\Users\Admin\Desktop\SPH-Tesis\data\results\conv_repeat_dp002_f0680_r2_gci.json
19:32:27 INFO: sqlite table: convergence_conv_repeat_dp002_f0680_r2
19:32:27 INFO: criterion: mode=displacement_only, reference_time=None
19:32:27 INFO: =================================================================
19:32:27 INFO: ESTUDIO DE CONVERGENCIA v2 — Config nueva (Moris)
19:32:27 INFO: =================================================================
19:32:27 INFO: dp a probar: [0.002]
19:32:27 INFO: Caso fijo: dam_h=0.2m, mass=1.0kg, fric=0.68, slope=1:20
19:32:27 INFO: Boulder pos: (6.5, 0.5, 0.025)
19:32:27 INFO: Metricas primarias: displacement, velocity, SPH force
19:32:27 INFO: Diagnostico: rotation
19:32:27 INFO: Process case kwargs: {'classification_mode': 'displacement_only', 'reference_time_s': None}
19:32:27 INFO: =================================================================
19:32:27 INFO: dsph_bin auto-detected: C:\DualSPHysics_v5.4.3\DualSPHysics_v5.4\bin\windows
19:32:27 INFO: Boulder 'BLIR3.stl' (escala=0.04, rot=(0.0, -2.862405226111748, 0.0)):
19:32:27 INFO:   Volumen:     0.00053023 m^3 (0.530 L)
19:32:27 INFO:   Densidad:    1886.0 kg/m^3
19:32:27 INFO:   Centro masa: [-0.020598, 0.011875, 0.017449] m (local)
19:32:27 INFO:   d_eq:        0.1004 m (10.0 cm)
19:32:27 INFO:   Bbox size:   0.1706 x 0.2100 x 0.0429 m
19:32:27 INFO:   dim_min/dp:  (requiere dp para calcular)
19:32:27 INFO: d_eq = 0.100421 m
19:32:27 INFO: 
=================================================================
19:32:27 INFO: [1/1] dp = 0.002
19:32:27 INFO: =================================================================
19:32:27 INFO: Calculando propiedades del boulder para caso 'conv_repeat_dp002_f0680_r2_dp0002'...
19:32:27 INFO: Boulder 'BLIR3.stl' (escala=0.04, rot=(0.0, -2.862405226111748, 0.0)):
19:32:27 INFO:   Volumen:     0.00053023 m^3 (0.530 L)
19:32:27 INFO:   Densidad:    1886.0 kg/m^3
19:32:27 INFO:   Centro masa: [-0.020598, 0.011875, 0.017449] m (local)
19:32:27 INFO:   d_eq:        0.1004 m (10.0 cm)
19:32:27 INFO:   Bbox size:   0.1706 x 0.2100 x 0.0429 m
19:32:27 INFO:   dim_min/dp:  (requiere dp para calcular)
19:32:27 INFO:   Ajuste apoyo boulder: elevando 0.508 mm para dejar contacto exacto con la playa
19:32:27 INFO:   dp=0.002m -> dim_min/dp = 21.5 (0.0429m / 0.002m)
19:32:27 INFO:   Fillbox seed: (6.4794, 0.5119, 0.0430)
19:32:27 INFO:   Reubicando gauges: boulder x=[6.417, 6.587], y=0.512, z_mid=0.043
19:32:27 INFO:     V01: z 0.100 -> 0.0020 (fondo local)
19:32:27 INFO:     V02: z 0.100 -> 0.0020 (fondo local)
19:32:27 INFO:     V03: z 0.100 -> 0.0020 (fondo local)
19:32:27 INFO:     V04: z 0.100 -> 0.0020 (fondo local)
19:32:27 INFO:     V08: z 0.150 -> 0.1395 (fondo local)
19:32:27 INFO:     V09: z 0.150 -> 0.1395 (fondo local)
19:32:27 INFO:     V10: z 0.150 -> 0.1395 (fondo local)
19:32:27 INFO:     V11: z 0.200 -> 0.1770 (fondo local)
19:32:27 INFO:     V05: -> upstream x=6.4149, z=0.0227
19:32:27 INFO:     V06: -> centroide x=6.4794
19:32:27 INFO:     V07: -> downstream x=6.5894, z=0.0315
19:32:27 INFO:     hmax03: y->0.512, z->0.0500, distlimit->0.04
19:32:27 INFO:     hmax04: y->0.512, z->0.1250, distlimit->0.04
19:32:27 INFO:     hmax05: y->0.512, z->0.1625, distlimit->0.04
19:32:27 INFO:   Gauges reubicados: 12 velocity, 8 maxz
19:32:27 INFO:   XML generado: C:\Users\Admin\Desktop\SPH-Tesis\cases\conv_repeat_dp002_f0680_r2_dp0002\conv_repeat_dp002_f0680_r2_dp0002_Def.xml
19:32:27 INFO: Generando canal: L_flat=6.0m, L_ramp=9.0m, slope=1:20, H_ramp=0.4500m, L_end=15.0m, W=1.0m, H=1.5m
19:32:27 INFO:   Canal: 10 verts, 12 faces, watertight=False
19:32:27 INFO:   STL guardado: C:\Users\Admin\Desktop\SPH-Tesis\cases\conv_repeat_dp002_f0680_r2_dp0002\canal_1to20.stl
19:32:27 INFO:   Archivos copiados a C:\Users\Admin\Desktop\SPH-Tesis\cases\conv_repeat_dp002_f0680_r2_dp0002
19:32:27 INFO:   PNG verificacion: C:\Users\Admin\Desktop\SPH-Tesis\cases\conv_repeat_dp002_f0680_r2_dp0002\canal_verificacion.png
19:32:27 INFO:   [1/3] Geometry OK
19:32:27 INFO:   Timeout: sin limite (dp=0.002)
19:32:27 INFO: === Ejecutando caso: conv_repeat_dp002_f0680_r2_dp0002 ===
19:32:27 INFO:   [conv_repeat_dp002_f0680_r2_dp0002] GenCase: C:\DualSPHysics_v5.4.3\DualSPHysics_v5.4\bin\windows\GenCase_win64.exe conv_repeat_dp002_f0680_r2_dp0002_Def conv_repeat_dp002_f0680_r2_dp0002_out/conv_repeat_dp002_f0680_r2_dp0002 -save:all
19:32:50 INFO:   [conv_repeat_dp002_f0680_r2_dp0002] DualSPHysics: C:\DualSPHysics_v5.4.3\DualSPHysics_v5.4\bin\windows\DualSPHysics5.4_win64.exe -gpu:0 conv_repeat_dp002_f0680_r2_dp0002_out/conv_repeat_dp002_f0680_r2_dp0002 conv_repeat_dp002_f0680_r2_dp0002_out
14:36:59 INFO:   CSVs recolectados (24): ChronoBody_forces.csv, ChronoExchange_mkbound_51.csv, GaugesMaxZ_hmax01.csv, GaugesMaxZ_hmax02.csv, GaugesMaxZ_hmax03.csv...
14:36:59 INFO:   [conv_repeat_dp002_f0680_r2_dp0002] Simulacion completada exitosamente
14:36:59 INFO:   [conv_repeat_dp002_f0680_r2_dp0002] Limpieza desactivada (cleanup_binaries=false)
14:36:59 INFO:   [conv_repeat_dp002_f0680_r2_dp0002] Duracion total: 68671.5s
14:36:59 INFO:   [2/3] Sim OK (68672s)
14:36:59 INFO: Procesando caso: conv_repeat_dp002_f0680_r2_dp0002
14:36:59 INFO:   ChronoExchange: 9500 filas, t=[0.5000, 9.9990]s
14:36:59 INFO:   Desplazamiento max: 0.003329m (3.32% de d_eq=0.1004m)
14:36:59 INFO:   Rotacion acumulada max: 7.91 grados
14:36:59 INFO:   Velocidad max boulder: 0.0698 m/s
14:36:59 INFO:   ChronoBody_forces: 9500 filas, bodies: {'beach', 'blir'}
14:36:59 INFO:   Fuerza SPH max: 7.9995N, Contacto max: 12933.2143N
14:36:59 INFO:   Gauges: 12 velocity, 8 maxZ
14:36:59 INFO:   Flujo max (gauge V05, dist=0.07m): 0.7760 m/s
14:36:59 INFO:   Agua max (gauge hmax03, dist=1.23m): 0.0651m
14:36:59 INFO:   Criterio (displacement_only): ESTABLE (umbral disp=5.0% d_eq=0.0050m, rot=5.0 deg)
14:36:59 INFO:   Flags criterio: moved=False, rotated=True
14:36:59 INFO:   [3/3] Analisis OK - 1144.5 min total
14:36:59 INFO: SQLite: 1 resultados guardados en C:\Users\Admin\Desktop\SPH-Tesis\data\results.sqlite:convergence_conv_repeat_dp002_f0680_r2
14:36:59 INFO: 
=================================================================
14:36:59 INFO: RESUMEN CONVERGENCIA
14:36:59 INFO: =================================================================
14:36:59 INFO:       dp          Np    MemGPU     disp(m)     d%   vel(m/s)     d%    Fsph(N)     d%   rot(deg)    t(min)
14:36:59 INFO: ----------------------------------------------------------------------------------------------------------
14:36:59 INFO:   0.0020    51862438     9.7GB    0.003329            0.0698            7.9995              7.91    1144.5
14:36:59 INFO: 
1/1 exitosos, total 1144.5 min
14:36:59 INFO: CSV: C:\Users\Admin\Desktop\SPH-Tesis\data\results\conv_repeat_dp002_f0680_r2.csv
