17:41:24 INFO: =================================================================
17:41:24 INFO: CONVERGENCIA CORTA CERCA DE LA FRONTERA
17:41:24 INFO: =================================================================
17:41:24 INFO: prefix: conv_reassure_dp003_f068075
17:41:24 INFO: caso: dam_h=0.2, mass=1.0, fric=0.68075, slope=1:20, rot_z=0.0
17:41:24 INFO: dps: [0.003]
17:41:24 INFO: csv: C:\Users\Admin\Desktop\SPH-Tesis\data\results\conv_reassure_dp003_f068075.csv
17:41:24 INFO: gci: C:\Users\Admin\Desktop\SPH-Tesis\data\results\conv_reassure_dp003_f068075_gci.json
17:41:24 INFO: sqlite table: convergence_conv_reassure_dp003_f068075
17:41:24 INFO: criterion: mode=displacement_only, reference_time=None
17:41:24 INFO: =================================================================
17:41:24 INFO: ESTUDIO DE CONVERGENCIA v2 — Config nueva (Moris)
17:41:24 INFO: =================================================================
17:41:24 INFO: dp a probar: [0.003]
17:41:24 INFO: Caso fijo: dam_h=0.2m, mass=1.0kg, fric=0.68075, slope=1:20
17:41:24 INFO: Boulder pos: (6.5, 0.5, 0.025)
17:41:24 INFO: Metricas primarias: displacement, velocity, SPH force
17:41:24 INFO: Diagnostico: rotation
17:41:24 INFO: Process case kwargs: {'classification_mode': 'displacement_only', 'reference_time_s': None}
17:41:24 INFO: =================================================================
17:41:24 INFO: dsph_bin auto-detected: C:\DualSPHysics_v5.4.3\DualSPHysics_v5.4\bin\windows
17:41:24 INFO: Boulder 'BLIR3.stl' (escala=0.04, rot=(0.0, -2.862405226111748, 0.0)):
17:41:24 INFO:   Volumen:     0.00053023 m^3 (0.530 L)
17:41:24 INFO:   Densidad:    1886.0 kg/m^3
17:41:24 INFO:   Centro masa: [-0.020598, 0.011875, 0.017449] m (local)
17:41:24 INFO:   d_eq:        0.1004 m (10.0 cm)
17:41:24 INFO:   Bbox size:   0.1706 x 0.2100 x 0.0429 m
17:41:24 INFO:   dim_min/dp:  (requiere dp para calcular)
17:41:24 INFO: d_eq = 0.100421 m
17:41:24 INFO: 
=================================================================
17:41:24 INFO: [1/1] dp = 0.003
17:41:24 INFO: =================================================================
17:41:24 INFO: Calculando propiedades del boulder para caso 'conv_reassure_dp003_f068075_dp0003'...
17:41:24 INFO: Boulder 'BLIR3.stl' (escala=0.04, rot=(0.0, -2.862405226111748, 0.0)):
17:41:24 INFO:   Volumen:     0.00053023 m^3 (0.530 L)
17:41:24 INFO:   Densidad:    1886.0 kg/m^3
17:41:24 INFO:   Centro masa: [-0.020598, 0.011875, 0.017449] m (local)
17:41:24 INFO:   d_eq:        0.1004 m (10.0 cm)
17:41:24 INFO:   Bbox size:   0.1706 x 0.2100 x 0.0429 m
17:41:24 INFO:   dim_min/dp:  (requiere dp para calcular)
17:41:24 INFO:   Ajuste apoyo boulder: elevando 0.508 mm para dejar contacto exacto con la playa
17:41:24 INFO:   dp=0.003m -> dim_min/dp = 14.3 (0.0429m / 0.003m)
17:41:24 INFO:   Fillbox seed: (6.4794, 0.5119, 0.0430)
17:41:24 INFO:   Reubicando gauges: boulder x=[6.417, 6.587], y=0.512, z_mid=0.043
17:41:24 INFO:     V01: z 0.100 -> 0.0030 (fondo local)
17:41:24 INFO:     V02: z 0.100 -> 0.0030 (fondo local)
17:41:24 INFO:     V03: z 0.100 -> 0.0030 (fondo local)
17:41:24 INFO:     V04: z 0.100 -> 0.0030 (fondo local)
17:41:24 INFO:     V11: z 0.200 -> 0.1780 (fondo local)
17:41:24 INFO:     V05: -> upstream x=6.4139, z=0.0237
17:41:24 INFO:     V06: -> centroide x=6.4794
17:41:24 INFO:     V07: -> downstream x=6.5904, z=0.0325
17:41:24 INFO:     hmax03: y->0.512, z->0.0500, distlimit->0.04
17:41:24 INFO:     hmax04: y->0.512, z->0.1250, distlimit->0.04
17:41:24 INFO:     hmax05: y->0.512, z->0.1625, distlimit->0.04
17:41:24 INFO:   Gauges reubicados: 12 velocity, 8 maxz
17:41:24 INFO:   XML generado: C:\Users\Admin\Desktop\SPH-Tesis\cases\conv_reassure_dp003_f068075_dp0003\conv_reassure_dp003_f068075_dp0003_Def.xml
17:41:24 INFO: Generando canal: L_flat=6.0m, L_ramp=9.0m, slope=1:20, H_ramp=0.4500m, L_end=15.0m, W=1.0m, H=1.5m
17:41:24 INFO:   Canal: 10 verts, 12 faces, watertight=False
17:41:24 INFO:   STL guardado: C:\Users\Admin\Desktop\SPH-Tesis\cases\conv_reassure_dp003_f068075_dp0003\canal_1to20.stl
17:41:24 INFO:   Archivos copiados a C:\Users\Admin\Desktop\SPH-Tesis\cases\conv_reassure_dp003_f068075_dp0003
17:41:24 INFO:   PNG verificacion: C:\Users\Admin\Desktop\SPH-Tesis\cases\conv_reassure_dp003_f068075_dp0003\canal_verificacion.png
17:41:24 INFO:   [1/3] Geometry OK
17:41:24 INFO:   Timeout: sin limite (dp=0.003)
17:41:24 INFO: === Ejecutando caso: conv_reassure_dp003_f068075_dp0003 ===
17:41:24 INFO:   [conv_reassure_dp003_f068075_dp0003] GenCase: C:\DualSPHysics_v5.4.3\DualSPHysics_v5.4\bin\windows\GenCase_win64.exe conv_reassure_dp003_f068075_dp0003_Def conv_reassure_dp003_f068075_dp0003_out/conv_reassure_dp003_f068075_dp0003 -save:all
17:41:31 INFO:   [conv_reassure_dp003_f068075_dp0003] DualSPHysics: C:\DualSPHysics_v5.4.3\DualSPHysics_v5.4\bin\windows\DualSPHysics5.4_win64.exe -gpu:0 conv_reassure_dp003_f068075_dp0003_out/conv_reassure_dp003_f068075_dp0003 conv_reassure_dp003_f068075_dp0003_out
21:48:50 INFO:   CSVs recolectados (24): ChronoBody_forces.csv, ChronoExchange_mkbound_51.csv, GaugesMaxZ_hmax01.csv, GaugesMaxZ_hmax02.csv, GaugesMaxZ_hmax03.csv...
21:48:50 INFO:   [conv_reassure_dp003_f068075_dp0003] Simulacion completada exitosamente
21:48:50 INFO:   [conv_reassure_dp003_f068075_dp0003] Limpieza desactivada (cleanup_binaries=false)
21:48:50 INFO:   [conv_reassure_dp003_f068075_dp0003] Duracion total: 14846.1s
21:48:50 INFO:   [2/3] Sim OK (14846s)
21:48:50 INFO: Procesando caso: conv_reassure_dp003_f068075_dp0003
21:48:50 INFO:   ChronoExchange: 9500 filas, t=[0.5000, 9.9990]s
21:48:50 INFO:   Desplazamiento max: 0.004051m (4.03% de d_eq=0.1004m)
21:48:50 INFO:   Rotacion acumulada max: 4.82 grados
21:48:50 INFO:   Velocidad max boulder: 0.1000 m/s
21:48:50 INFO:   ChronoBody_forces: 9500 filas, bodies: {'beach', 'blir'}
21:48:50 INFO:   Fuerza SPH max: 9.0153N, Contacto max: 10753.5547N
21:48:51 INFO:   Gauges: 12 velocity, 8 maxZ
21:48:51 INFO:   Flujo max (gauge V05, dist=0.07m): 0.8128 m/s
21:48:51 INFO:   Agua max (gauge hmax03, dist=1.23m): 0.0687m
21:48:51 INFO:   Criterio (displacement_only): ESTABLE (umbral disp=5.0% d_eq=0.0050m, rot=5.0 deg)
21:48:51 INFO:   Flags criterio: moved=False, rotated=False
21:48:51 INFO:   [3/3] Analisis OK - 247.4 min total
21:48:51 INFO: SQLite: 1 resultados guardados en C:\Users\Admin\Desktop\SPH-Tesis\data\results.sqlite:convergence_conv_reassure_dp003_f068075
21:48:51 INFO: 
=================================================================
21:48:51 INFO: RESUMEN CONVERGENCIA
21:48:51 INFO: =================================================================
21:48:51 INFO:       dp          Np    MemGPU     disp(m)     d%   vel(m/s)     d%    Fsph(N)     d%   rot(deg)    t(min)
21:48:51 INFO: ----------------------------------------------------------------------------------------------------------
21:48:51 INFO:   0.0030    17525854     3.3GB    0.004051            0.1000            9.0153              4.82     247.4
21:48:51 INFO: 
1/1 exitosos, total 247.4 min
21:48:51 INFO: CSV: C:\Users\Admin\Desktop\SPH-Tesis\data\results\conv_reassure_dp003_f068075.csv
