21:48:54 INFO: =================================================================
21:48:54 INFO: CONVERGENCIA CORTA CERCA DE LA FRONTERA
21:48:54 INFO: =================================================================
21:48:54 INFO: prefix: conv_reassure_dp003_f068125
21:48:54 INFO: caso: dam_h=0.2, mass=1.0, fric=0.68125, slope=1:20, rot_z=0.0
21:48:54 INFO: dps: [0.003]
21:48:54 INFO: csv: C:\Users\Admin\Desktop\SPH-Tesis\data\results\conv_reassure_dp003_f068125.csv
21:48:54 INFO: gci: C:\Users\Admin\Desktop\SPH-Tesis\data\results\conv_reassure_dp003_f068125_gci.json
21:48:54 INFO: sqlite table: convergence_conv_reassure_dp003_f068125
21:48:54 INFO: criterion: mode=displacement_only, reference_time=None
21:48:54 INFO: =================================================================
21:48:54 INFO: ESTUDIO DE CONVERGENCIA v2 — Config nueva (Moris)
21:48:54 INFO: =================================================================
21:48:54 INFO: dp a probar: [0.003]
21:48:54 INFO: Caso fijo: dam_h=0.2m, mass=1.0kg, fric=0.68125, slope=1:20
21:48:54 INFO: Boulder pos: (6.5, 0.5, 0.025)
21:48:54 INFO: Metricas primarias: displacement, velocity, SPH force
21:48:54 INFO: Diagnostico: rotation
21:48:54 INFO: Process case kwargs: {'classification_mode': 'displacement_only', 'reference_time_s': None}
21:48:54 INFO: =================================================================
21:48:54 INFO: dsph_bin auto-detected: C:\DualSPHysics_v5.4.3\DualSPHysics_v5.4\bin\windows
21:48:54 INFO: Boulder 'BLIR3.stl' (escala=0.04, rot=(0.0, -2.862405226111748, 0.0)):
21:48:54 INFO:   Volumen:     0.00053023 m^3 (0.530 L)
21:48:54 INFO:   Densidad:    1886.0 kg/m^3
21:48:54 INFO:   Centro masa: [-0.020598, 0.011875, 0.017449] m (local)
21:48:54 INFO:   d_eq:        0.1004 m (10.0 cm)
21:48:54 INFO:   Bbox size:   0.1706 x 0.2100 x 0.0429 m
21:48:54 INFO:   dim_min/dp:  (requiere dp para calcular)
21:48:54 INFO: d_eq = 0.100421 m
21:48:54 INFO: 
=================================================================
21:48:54 INFO: [1/1] dp = 0.003
21:48:54 INFO: =================================================================
21:48:54 INFO: Calculando propiedades del boulder para caso 'conv_reassure_dp003_f068125_dp0003'...
21:48:54 INFO: Boulder 'BLIR3.stl' (escala=0.04, rot=(0.0, -2.862405226111748, 0.0)):
21:48:54 INFO:   Volumen:     0.00053023 m^3 (0.530 L)
21:48:54 INFO:   Densidad:    1886.0 kg/m^3
21:48:54 INFO:   Centro masa: [-0.020598, 0.011875, 0.017449] m (local)
21:48:54 INFO:   d_eq:        0.1004 m (10.0 cm)
21:48:54 INFO:   Bbox size:   0.1706 x 0.2100 x 0.0429 m
21:48:54 INFO:   dim_min/dp:  (requiere dp para calcular)
21:48:54 INFO:   Ajuste apoyo boulder: elevando 0.508 mm para dejar contacto exacto con la playa
21:48:54 INFO:   dp=0.003m -> dim_min/dp = 14.3 (0.0429m / 0.003m)
21:48:54 INFO:   Fillbox seed: (6.4794, 0.5119, 0.0430)
21:48:54 INFO:   Reubicando gauges: boulder x=[6.417, 6.587], y=0.512, z_mid=0.043
21:48:54 INFO:     V01: z 0.100 -> 0.0030 (fondo local)
21:48:54 INFO:     V02: z 0.100 -> 0.0030 (fondo local)
21:48:54 INFO:     V03: z 0.100 -> 0.0030 (fondo local)
21:48:54 INFO:     V04: z 0.100 -> 0.0030 (fondo local)
21:48:54 INFO:     V11: z 0.200 -> 0.1780 (fondo local)
21:48:54 INFO:     V05: -> upstream x=6.4139, z=0.0237
21:48:54 INFO:     V06: -> centroide x=6.4794
21:48:54 INFO:     V07: -> downstream x=6.5904, z=0.0325
21:48:54 INFO:     hmax03: y->0.512, z->0.0500, distlimit->0.04
21:48:54 INFO:     hmax04: y->0.512, z->0.1250, distlimit->0.04
21:48:54 INFO:     hmax05: y->0.512, z->0.1625, distlimit->0.04
21:48:54 INFO:   Gauges reubicados: 12 velocity, 8 maxz
21:48:54 INFO:   XML generado: C:\Users\Admin\Desktop\SPH-Tesis\cases\conv_reassure_dp003_f068125_dp0003\conv_reassure_dp003_f068125_dp0003_Def.xml
21:48:54 INFO: Generando canal: L_flat=6.0m, L_ramp=9.0m, slope=1:20, H_ramp=0.4500m, L_end=15.0m, W=1.0m, H=1.5m
21:48:54 INFO:   Canal: 10 verts, 12 faces, watertight=False
21:48:54 INFO:   STL guardado: C:\Users\Admin\Desktop\SPH-Tesis\cases\conv_reassure_dp003_f068125_dp0003\canal_1to20.stl
21:48:54 INFO:   Archivos copiados a C:\Users\Admin\Desktop\SPH-Tesis\cases\conv_reassure_dp003_f068125_dp0003
21:48:55 INFO:   PNG verificacion: C:\Users\Admin\Desktop\SPH-Tesis\cases\conv_reassure_dp003_f068125_dp0003\canal_verificacion.png
21:48:55 INFO:   [1/3] Geometry OK
21:48:55 INFO:   Timeout: sin limite (dp=0.003)
21:48:55 INFO: === Ejecutando caso: conv_reassure_dp003_f068125_dp0003 ===
21:48:55 INFO:   [conv_reassure_dp003_f068125_dp0003] GenCase: C:\DualSPHysics_v5.4.3\DualSPHysics_v5.4\bin\windows\GenCase_win64.exe conv_reassure_dp003_f068125_dp0003_Def conv_reassure_dp003_f068125_dp0003_out/conv_reassure_dp003_f068125_dp0003 -save:all
21:49:01 INFO:   [conv_reassure_dp003_f068125_dp0003] DualSPHysics: C:\DualSPHysics_v5.4.3\DualSPHysics_v5.4\bin\windows\DualSPHysics5.4_win64.exe -gpu:0 conv_reassure_dp003_f068125_dp0003_out/conv_reassure_dp003_f068125_dp0003 conv_reassure_dp003_f068125_dp0003_out
01:58:17 INFO:   CSVs recolectados (24): ChronoBody_forces.csv, ChronoExchange_mkbound_51.csv, GaugesMaxZ_hmax01.csv, GaugesMaxZ_hmax02.csv, GaugesMaxZ_hmax03.csv...
01:58:17 INFO:   [conv_reassure_dp003_f068125_dp0003] Simulacion completada exitosamente
01:58:17 INFO:   [conv_reassure_dp003_f068125_dp0003] Limpieza desactivada (cleanup_binaries=false)
01:58:17 INFO:   [conv_reassure_dp003_f068125_dp0003] Duracion total: 14962.7s
01:58:17 INFO:   [2/3] Sim OK (14963s)
01:58:17 INFO: Procesando caso: conv_reassure_dp003_f068125_dp0003
01:58:17 INFO:   ChronoExchange: 9500 filas, t=[0.5000, 9.9990]s
01:58:17 INFO:   Desplazamiento max: 0.003628m (3.61% de d_eq=0.1004m)
01:58:17 INFO:   Rotacion acumulada max: 5.17 grados
01:58:17 INFO:   Velocidad max boulder: 0.1000 m/s
01:58:17 INFO:   ChronoBody_forces: 9500 filas, bodies: {'blir', 'beach'}
01:58:17 INFO:   Fuerza SPH max: 9.2262N, Contacto max: 10752.1118N
01:58:18 INFO:   Gauges: 12 velocity, 8 maxZ
01:58:18 INFO:   Flujo max (gauge V05, dist=0.07m): 0.7744 m/s
01:58:18 INFO:   Agua max (gauge hmax03, dist=1.23m): 0.0685m
01:58:18 INFO:   Criterio (displacement_only): ESTABLE (umbral disp=5.0% d_eq=0.0050m, rot=5.0 deg)
01:58:18 INFO:   Flags criterio: moved=False, rotated=True
01:58:18 INFO:   [3/3] Analisis OK - 249.4 min total
01:58:18 INFO: SQLite: 1 resultados guardados en C:\Users\Admin\Desktop\SPH-Tesis\data\results.sqlite:convergence_conv_reassure_dp003_f068125
01:58:18 INFO: 
=================================================================
01:58:18 INFO: RESUMEN CONVERGENCIA
01:58:18 INFO: =================================================================
01:58:18 INFO:       dp          Np    MemGPU     disp(m)     d%   vel(m/s)     d%    Fsph(N)     d%   rot(deg)    t(min)
01:58:18 INFO: ----------------------------------------------------------------------------------------------------------
01:58:18 INFO:   0.0030    17525854     3.3GB    0.003628            0.1000            9.2262              5.17     249.4
01:58:18 INFO: 
1/1 exitosos, total 249.4 min
01:58:18 INFO: CSV: C:\Users\Admin\Desktop\SPH-Tesis\data\results\conv_reassure_dp003_f068125.csv
