23:10:42 INFO: =================================================================
23:10:42 INFO: CONVERGENCIA CORTA CERCA DE LA FRONTERA
23:10:42 INFO: =================================================================
23:10:42 INFO: prefix: conv_fix_f0700_full
23:10:42 INFO: caso: dam_h=0.2, mass=1.0, fric=0.7, slope=1:20, rot_z=0.0
23:10:42 INFO: dps: [0.004, 0.003, 0.002]
23:10:42 INFO: csv: C:\Users\Admin\Desktop\SPH-Tesis\data\results\conv_fix_f0700_full.csv
23:10:42 INFO: gci: C:\Users\Admin\Desktop\SPH-Tesis\data\results\conv_fix_f0700_full_gci.json
23:10:42 INFO: sqlite table: convergence_conv_fix_f0700_full
23:10:42 INFO: =================================================================
23:10:42 INFO: ESTUDIO DE CONVERGENCIA v2 — Config nueva (Moris)
23:10:42 INFO: =================================================================
23:10:42 INFO: dp a probar: [0.004, 0.003, 0.002]
23:10:42 INFO: Caso fijo: dam_h=0.2m, mass=1.0kg, fric=0.7, slope=1:20
23:10:42 INFO: Boulder pos: (6.5, 0.5, 0.025)
23:10:42 INFO: Metricas primarias: displacement, velocity, SPH force
23:10:42 INFO: Diagnostico: rotation
23:10:42 INFO: =================================================================
23:10:42 INFO: dsph_bin auto-detected: C:\DualSPHysics_v5.4.3\DualSPHysics_v5.4\bin\windows
23:10:42 INFO: Boulder 'BLIR3.stl' (escala=0.04, rot=(0.0, -2.862405226111748, 0.0)):
23:10:42 INFO:   Volumen:     0.00053023 m^3 (0.530 L)
23:10:42 INFO:   Densidad:    1886.0 kg/m^3
23:10:42 INFO:   Centro masa: [-0.020598, 0.011875, 0.017449] m (local)
23:10:42 INFO:   d_eq:        0.1004 m (10.0 cm)
23:10:42 INFO:   Bbox size:   0.1706 x 0.2100 x 0.0429 m
23:10:42 INFO:   dim_min/dp:  (requiere dp para calcular)
23:10:42 INFO: d_eq = 0.100421 m
23:10:42 INFO: 
=================================================================
23:10:42 INFO: [1/3] dp = 0.004
23:10:42 INFO: =================================================================
23:10:42 INFO: Calculando propiedades del boulder para caso 'conv_fix_f0700_full_dp0004'...
23:10:42 INFO: Boulder 'BLIR3.stl' (escala=0.04, rot=(0.0, -2.862405226111748, 0.0)):
23:10:42 INFO:   Volumen:     0.00053023 m^3 (0.530 L)
23:10:42 INFO:   Densidad:    1886.0 kg/m^3
23:10:42 INFO:   Centro masa: [-0.020598, 0.011875, 0.017449] m (local)
23:10:42 INFO:   d_eq:        0.1004 m (10.0 cm)
23:10:42 INFO:   Bbox size:   0.1706 x 0.2100 x 0.0429 m
23:10:42 INFO:   dim_min/dp:  (requiere dp para calcular)
23:10:42 INFO:   Ajuste apoyo boulder: elevando 0.508 mm para dejar contacto exacto con la playa
23:10:42 INFO:   dp=0.004m -> dim_min/dp = 10.7 (0.0429m / 0.004m)
23:10:42 INFO:   Fillbox seed: (6.4794, 0.5119, 0.0430)
23:10:42 INFO:   Reubicando gauges: boulder x=[6.417, 6.587], y=0.512, z_mid=0.043
23:10:42 INFO:     V01: z 0.100 -> 0.0040 (fondo local)
23:10:42 INFO:     V02: z 0.100 -> 0.0040 (fondo local)
23:10:42 INFO:     V03: z 0.100 -> 0.0040 (fondo local)
23:10:42 INFO:     V04: z 0.100 -> 0.0040 (fondo local)
23:10:42 INFO:     V11: z 0.200 -> 0.1790 (fondo local)
23:10:42 INFO:     V05: -> upstream x=6.4129, z=0.0246
23:10:42 INFO:     V06: -> centroide x=6.4794
23:10:42 INFO:     V07: -> downstream x=6.5914, z=0.0336
23:10:42 INFO:     hmax03: y->0.512, z->0.0500, distlimit->0.04
23:10:42 INFO:     hmax04: y->0.512, z->0.1250, distlimit->0.04
23:10:42 INFO:     hmax05: y->0.512, z->0.1625, distlimit->0.04
23:10:42 INFO:   Gauges reubicados: 12 velocity, 8 maxz
23:10:42 INFO:   XML generado: C:\Users\Admin\Desktop\SPH-Tesis\cases\conv_fix_f0700_full_dp0004\conv_fix_f0700_full_dp0004_Def.xml
23:10:42 INFO: Generando canal: L_flat=6.0m, L_ramp=9.0m, slope=1:20, H_ramp=0.4500m, L_end=15.0m, W=1.0m, H=1.5m
23:10:42 INFO:   Canal: 10 verts, 12 faces, watertight=False
23:10:42 INFO:   STL guardado: C:\Users\Admin\Desktop\SPH-Tesis\cases\conv_fix_f0700_full_dp0004\canal_1to20.stl
23:10:42 INFO:   Archivos copiados a C:\Users\Admin\Desktop\SPH-Tesis\cases\conv_fix_f0700_full_dp0004
23:10:42 INFO:   PNG verificacion: C:\Users\Admin\Desktop\SPH-Tesis\cases\conv_fix_f0700_full_dp0004\canal_verificacion.png
23:10:42 INFO:   [1/3] Geometry OK
23:10:42 INFO:   Timeout: sin limite (dp=0.004)
23:10:42 INFO: === Ejecutando caso: conv_fix_f0700_full_dp0004 ===
23:10:42 INFO:   [conv_fix_f0700_full_dp0004] GenCase: C:\DualSPHysics_v5.4.3\DualSPHysics_v5.4\bin\windows\GenCase_win64.exe conv_fix_f0700_full_dp0004_Def conv_fix_f0700_full_dp0004_out/conv_fix_f0700_full_dp0004 -save:all
23:10:48 INFO:   [conv_fix_f0700_full_dp0004] DualSPHysics: C:\DualSPHysics_v5.4.3\DualSPHysics_v5.4\bin\windows\DualSPHysics5.4_win64.exe -gpu:0 conv_fix_f0700_full_dp0004_out/conv_fix_f0700_full_dp0004 conv_fix_f0700_full_dp0004_out
00:39:48 INFO:   CSVs recolectados (24): ChronoBody_forces.csv, ChronoExchange_mkbound_51.csv, GaugesMaxZ_hmax01.csv, GaugesMaxZ_hmax02.csv, GaugesMaxZ_hmax03.csv...
00:39:48 INFO:   [conv_fix_f0700_full_dp0004] Simulacion completada exitosamente
00:39:48 INFO:   [conv_fix_f0700_full_dp0004] Limpieza desactivada (cleanup_binaries=false)
00:39:48 INFO:   [conv_fix_f0700_full_dp0004] Duracion total: 5346.3s
00:39:48 INFO:   [2/3] Sim OK (5346s)
00:39:48 INFO: Procesando caso: conv_fix_f0700_full_dp0004
00:39:48 INFO:   ChronoExchange: 9500 filas, t=[0.5000, 9.9990]s
00:39:48 INFO:   Desplazamiento max: 0.005020m (5.00% de d_eq=0.1004m)
00:39:48 INFO:   Rotacion max: 4.89 grados
00:39:48 INFO:   Velocidad max boulder: 0.1000 m/s
00:39:48 INFO:   ChronoBody_forces: 9500 filas, bodies: {'blir', 'beach'}
00:39:48 INFO:   Fuerza SPH max: 16.4828N, Contacto max: 2891.5155N
00:39:49 INFO:   Gauges: 12 velocity, 8 maxZ
00:39:49 INFO:   Flujo max (gauge V06, dist=0.00m): 0.0000 m/s
00:39:49 INFO:   Agua max (gauge hmax04, dist=1.02m): 0.1263m
00:39:49 INFO:   Criterio: ESTABLE (umbral disp=5.0% d_eq=0.0050m, rot=5.0 deg)
00:39:49 INFO:   [3/3] Analisis OK - 89.1 min total
00:39:49 INFO:   SQLite: columna 'friction_coefficient' agregada a tabla 'convergence_conv_fix_f0700_full'
00:39:49 INFO:   SQLite: columna 'slope_inv' agregada a tabla 'convergence_conv_fix_f0700_full'
00:39:49 INFO: SQLite: 1 resultados guardados en C:\Users\Admin\Desktop\SPH-Tesis\data\results.sqlite:convergence_conv_fix_f0700_full
00:39:49 INFO: 
=================================================================
00:39:49 INFO: [2/3] dp = 0.003
00:39:49 INFO: =================================================================
00:39:49 INFO: Calculando propiedades del boulder para caso 'conv_fix_f0700_full_dp0003'...
00:39:49 INFO: Boulder 'BLIR3.stl' (escala=0.04, rot=(0.0, -2.862405226111748, 0.0)):
00:39:49 INFO:   Volumen:     0.00053023 m^3 (0.530 L)
00:39:49 INFO:   Densidad:    1886.0 kg/m^3
00:39:49 INFO:   Centro masa: [-0.020598, 0.011875, 0.017449] m (local)
00:39:49 INFO:   d_eq:        0.1004 m (10.0 cm)
00:39:49 INFO:   Bbox size:   0.1706 x 0.2100 x 0.0429 m
00:39:49 INFO:   dim_min/dp:  (requiere dp para calcular)
00:39:49 INFO:   Ajuste apoyo boulder: elevando 0.508 mm para dejar contacto exacto con la playa
00:39:49 INFO:   dp=0.003m -> dim_min/dp = 14.3 (0.0429m / 0.003m)
00:39:49 INFO:   Fillbox seed: (6.4794, 0.5119, 0.0430)
00:39:49 INFO:   Reubicando gauges: boulder x=[6.417, 6.587], y=0.512, z_mid=0.043
00:39:49 INFO:     V01: z 0.100 -> 0.0030 (fondo local)
00:39:49 INFO:     V02: z 0.100 -> 0.0030 (fondo local)
00:39:49 INFO:     V03: z 0.100 -> 0.0030 (fondo local)
00:39:49 INFO:     V04: z 0.100 -> 0.0030 (fondo local)
00:39:49 INFO:     V11: z 0.200 -> 0.1780 (fondo local)
00:39:49 INFO:     V05: -> upstream x=6.4139, z=0.0237
00:39:49 INFO:     V06: -> centroide x=6.4794
00:39:49 INFO:     V07: -> downstream x=6.5904, z=0.0325
00:39:49 INFO:     hmax03: y->0.512, z->0.0500, distlimit->0.04
00:39:49 INFO:     hmax04: y->0.512, z->0.1250, distlimit->0.04
00:39:49 INFO:     hmax05: y->0.512, z->0.1625, distlimit->0.04
00:39:49 INFO:   Gauges reubicados: 12 velocity, 8 maxz
00:39:49 INFO:   XML generado: C:\Users\Admin\Desktop\SPH-Tesis\cases\conv_fix_f0700_full_dp0003\conv_fix_f0700_full_dp0003_Def.xml
00:39:49 INFO: Generando canal: L_flat=6.0m, L_ramp=9.0m, slope=1:20, H_ramp=0.4500m, L_end=15.0m, W=1.0m, H=1.5m
00:39:49 INFO:   Canal: 10 verts, 12 faces, watertight=False
00:39:49 INFO:   STL guardado: C:\Users\Admin\Desktop\SPH-Tesis\cases\conv_fix_f0700_full_dp0003\canal_1to20.stl
00:39:49 INFO:   Archivos copiados a C:\Users\Admin\Desktop\SPH-Tesis\cases\conv_fix_f0700_full_dp0003
00:39:49 INFO:   PNG verificacion: C:\Users\Admin\Desktop\SPH-Tesis\cases\conv_fix_f0700_full_dp0003\canal_verificacion.png
00:39:49 INFO:   [1/3] Geometry OK
00:39:49 INFO:   Timeout: sin limite (dp=0.003)
00:39:49 INFO: === Ejecutando caso: conv_fix_f0700_full_dp0003 ===
00:39:49 INFO:   [conv_fix_f0700_full_dp0003] GenCase: C:\DualSPHysics_v5.4.3\DualSPHysics_v5.4\bin\windows\GenCase_win64.exe conv_fix_f0700_full_dp0003_Def conv_fix_f0700_full_dp0003_out/conv_fix_f0700_full_dp0003 -save:all
00:39:56 INFO:   [conv_fix_f0700_full_dp0003] DualSPHysics: C:\DualSPHysics_v5.4.3\DualSPHysics_v5.4\bin\windows\DualSPHysics5.4_win64.exe -gpu:0 conv_fix_f0700_full_dp0003_out/conv_fix_f0700_full_dp0003 conv_fix_f0700_full_dp0003_out
04:49:24 INFO:   CSVs recolectados (24): ChronoBody_forces.csv, ChronoExchange_mkbound_51.csv, GaugesMaxZ_hmax01.csv, GaugesMaxZ_hmax02.csv, GaugesMaxZ_hmax03.csv...
04:49:24 INFO:   [conv_fix_f0700_full_dp0003] Simulacion completada exitosamente
04:49:24 INFO:   [conv_fix_f0700_full_dp0003] Limpieza desactivada (cleanup_binaries=false)
04:49:24 INFO:   [conv_fix_f0700_full_dp0003] Duracion total: 14975.7s
04:49:24 INFO:   [2/3] Sim OK (14976s)
04:49:24 INFO: Procesando caso: conv_fix_f0700_full_dp0003
04:49:24 INFO:   ChronoExchange: 9500 filas, t=[0.5000, 9.9990]s
04:49:24 INFO:   Desplazamiento max: 0.002322m (2.31% de d_eq=0.1004m)
04:49:24 INFO:   Rotacion max: 4.87 grados
04:49:24 INFO:   Velocidad max boulder: 0.1001 m/s
04:49:24 INFO:   ChronoBody_forces: 9500 filas, bodies: {'blir', 'beach'}
04:49:24 INFO:   Fuerza SPH max: 8.3874N, Contacto max: 10715.6848N
04:49:24 INFO:   Gauges: 12 velocity, 8 maxZ
04:49:24 INFO:   Flujo max (gauge V06, dist=0.00m): 0.0000 m/s
04:49:24 INFO:   Agua max (gauge hmax04, dist=1.02m): 0.1320m
04:49:24 INFO:   Criterio: ESTABLE (umbral disp=5.0% d_eq=0.0050m, rot=5.0 deg)
04:49:24 INFO:   [3/3] Analisis OK - 249.6 min total
04:49:24 INFO: SQLite: 1 resultados guardados en C:\Users\Admin\Desktop\SPH-Tesis\data\results.sqlite:convergence_conv_fix_f0700_full
04:49:24 INFO: 
=================================================================
04:49:24 INFO: [3/3] dp = 0.002
04:49:24 INFO: =================================================================
04:49:24 INFO: Calculando propiedades del boulder para caso 'conv_fix_f0700_full_dp0002'...
04:49:24 INFO: Boulder 'BLIR3.stl' (escala=0.04, rot=(0.0, -2.862405226111748, 0.0)):
04:49:24 INFO:   Volumen:     0.00053023 m^3 (0.530 L)
04:49:24 INFO:   Densidad:    1886.0 kg/m^3
04:49:24 INFO:   Centro masa: [-0.020598, 0.011875, 0.017449] m (local)
04:49:24 INFO:   d_eq:        0.1004 m (10.0 cm)
04:49:24 INFO:   Bbox size:   0.1706 x 0.2100 x 0.0429 m
04:49:24 INFO:   dim_min/dp:  (requiere dp para calcular)
04:49:24 INFO:   Ajuste apoyo boulder: elevando 0.508 mm para dejar contacto exacto con la playa
04:49:24 INFO:   dp=0.002m -> dim_min/dp = 21.5 (0.0429m / 0.002m)
04:49:24 INFO:   Fillbox seed: (6.4794, 0.5119, 0.0430)
04:49:24 INFO:   Reubicando gauges: boulder x=[6.417, 6.587], y=0.512, z_mid=0.043
04:49:24 INFO:     V01: z 0.100 -> 0.0020 (fondo local)
04:49:24 INFO:     V02: z 0.100 -> 0.0020 (fondo local)
04:49:24 INFO:     V03: z 0.100 -> 0.0020 (fondo local)
04:49:24 INFO:     V04: z 0.100 -> 0.0020 (fondo local)
04:49:24 INFO:     V08: z 0.150 -> 0.1395 (fondo local)
04:49:24 INFO:     V09: z 0.150 -> 0.1395 (fondo local)
04:49:24 INFO:     V10: z 0.150 -> 0.1395 (fondo local)
04:49:24 INFO:     V11: z 0.200 -> 0.1770 (fondo local)
04:49:24 INFO:     V05: -> upstream x=6.4149, z=0.0227
04:49:24 INFO:     V06: -> centroide x=6.4794
04:49:24 INFO:     V07: -> downstream x=6.5894, z=0.0315
04:49:24 INFO:     hmax03: y->0.512, z->0.0500, distlimit->0.04
04:49:24 INFO:     hmax04: y->0.512, z->0.1250, distlimit->0.04
04:49:24 INFO:     hmax05: y->0.512, z->0.1625, distlimit->0.04
04:49:24 INFO:   Gauges reubicados: 12 velocity, 8 maxz
04:49:24 INFO:   XML generado: C:\Users\Admin\Desktop\SPH-Tesis\cases\conv_fix_f0700_full_dp0002\conv_fix_f0700_full_dp0002_Def.xml
04:49:24 INFO: Generando canal: L_flat=6.0m, L_ramp=9.0m, slope=1:20, H_ramp=0.4500m, L_end=15.0m, W=1.0m, H=1.5m
04:49:24 INFO:   Canal: 10 verts, 12 faces, watertight=False
04:49:24 INFO:   STL guardado: C:\Users\Admin\Desktop\SPH-Tesis\cases\conv_fix_f0700_full_dp0002\canal_1to20.stl
04:49:24 INFO:   Archivos copiados a C:\Users\Admin\Desktop\SPH-Tesis\cases\conv_fix_f0700_full_dp0002
04:49:25 INFO:   PNG verificacion: C:\Users\Admin\Desktop\SPH-Tesis\cases\conv_fix_f0700_full_dp0002\canal_verificacion.png
04:49:25 INFO:   [1/3] Geometry OK
04:49:25 INFO:   Timeout: sin limite (dp=0.002)
04:49:25 INFO: === Ejecutando caso: conv_fix_f0700_full_dp0002 ===
04:49:25 INFO:   [conv_fix_f0700_full_dp0002] GenCase: C:\DualSPHysics_v5.4.3\DualSPHysics_v5.4\bin\windows\GenCase_win64.exe conv_fix_f0700_full_dp0002_Def conv_fix_f0700_full_dp0002_out/conv_fix_f0700_full_dp0002 -save:all
04:49:47 INFO:   [conv_fix_f0700_full_dp0002] DualSPHysics: C:\DualSPHysics_v5.4.3\DualSPHysics_v5.4\bin\windows\DualSPHysics5.4_win64.exe -gpu:0 conv_fix_f0700_full_dp0002_out/conv_fix_f0700_full_dp0002 conv_fix_f0700_full_dp0002_out
23:52:18 INFO:   CSVs recolectados (24): ChronoBody_forces.csv, ChronoExchange_mkbound_51.csv, GaugesMaxZ_hmax01.csv, GaugesMaxZ_hmax02.csv, GaugesMaxZ_hmax03.csv...
23:52:18 INFO:   [conv_fix_f0700_full_dp0002] Simulacion completada exitosamente
23:52:18 INFO:   [conv_fix_f0700_full_dp0002] Limpieza desactivada (cleanup_binaries=false)
23:52:18 INFO:   [conv_fix_f0700_full_dp0002] Duracion total: 68573.3s
23:52:18 INFO:   [2/3] Sim OK (68573s)
23:52:18 INFO: Procesando caso: conv_fix_f0700_full_dp0002
23:52:18 INFO:   ChronoExchange: 9500 filas, t=[0.5000, 9.9990]s
23:52:18 INFO:   Desplazamiento max: 0.001845m (1.84% de d_eq=0.1004m)
23:52:18 INFO:   Rotacion max: 7.04 grados
23:52:18 INFO:   Velocidad max boulder: 0.0699 m/s
23:52:18 INFO:   ChronoBody_forces: 9500 filas, bodies: {'blir', 'beach'}
23:52:18 INFO:   Fuerza SPH max: 8.0444N, Contacto max: 12945.6218N
23:52:18 INFO:   Gauges: 12 velocity, 8 maxZ
23:52:18 INFO:   Flujo max (gauge V06, dist=0.00m): 0.0000 m/s
23:52:18 INFO:   Agua max (gauge hmax04, dist=1.02m): 0.1408m
23:52:18 INFO:   Criterio: FALLO (movimiento) (umbral disp=5.0% d_eq=0.0050m, rot=5.0 deg)
23:52:18 INFO:   [3/3] Analisis OK - 1142.9 min total
23:52:18 INFO: SQLite: 1 resultados guardados en C:\Users\Admin\Desktop\SPH-Tesis\data\results.sqlite:convergence_conv_fix_f0700_full
23:52:18 INFO: 
=================================================================
23:52:18 INFO: RESUMEN CONVERGENCIA
23:52:18 INFO: =================================================================
23:52:18 INFO:       dp          Np    MemGPU     disp(m)     d%   vel(m/s)     d%    Fsph(N)     d%   rot(deg)    t(min)
23:52:18 INFO: ----------------------------------------------------------------------------------------------------------
23:52:18 INFO:   0.0040     8152043     1.5GB    0.005020            0.1000           16.4828              4.89      89.1
23:52:18 INFO:   0.0030    17525854     3.3GB    0.002322  53.8%     0.1001   0.1%     8.3874  49.1%       4.87     249.6
23:52:18 INFO:   0.0020    51862438     9.8GB    0.001845  20.5%     0.0699  30.1%     8.0444   4.1%       7.04    1142.9
23:52:18 INFO: 
3/3 exitosos, total 1481.6 min
23:52:18 INFO: CSV: C:\Users\Admin\Desktop\SPH-Tesis\data\results\conv_fix_f0700_full.csv
23:52:18 INFO: 
=================================================================
23:52:18 INFO: ANALISIS GCI (Celik 2008)
23:52:18 INFO: =================================================================
23:52:18 INFO: 
--- displacement (PRIMARIA) ---
23:52:18 INFO:   Mallas: dp=0.002, 0.003, 0.004
23:52:18 INFO:   Valores: 0.001845, 0.002322, 0.005020 m
23:52:18 INFO:   Tipo convergencia: divergent
23:52:18 INFO:   GCI/Richardson NO APLICA para convergencia divergent (Celik 2008)
23:52:18 INFO:   Deltas entre niveles:
23:52:18 INFO:     dp 0.0020 -> 0.0030: delta=0.000476 m (25.8%)
23:52:18 INFO:     dp 0.0030 -> 0.0040: delta=0.002698 m (116.2%)
23:52:18 INFO: 
--- velocity (PRIMARIA) ---
23:52:18 INFO:   Mallas: dp=0.002, 0.003, 0.004
23:52:18 INFO:   Valores: 0.069918, 0.100077, 0.100000 m/s
23:52:18 INFO:   Tipo convergencia: oscillatory
23:52:18 INFO:   GCI/Richardson NO APLICA para convergencia oscillatory (Celik 2008)
23:52:18 INFO:   Deltas entre niveles:
23:52:18 INFO:     dp 0.0020 -> 0.0030: delta=0.030159 m/s (43.1%)
23:52:18 INFO:     dp 0.0030 -> 0.0040: delta=0.000077 m/s (0.1%)
23:52:18 INFO: 
--- sph_force (PRIMARIA) ---
23:52:18 INFO:   Mallas: dp=0.002, 0.003, 0.004
23:52:18 INFO:   Valores: 8.044382, 8.387386, 16.482791 N
23:52:18 INFO:   Tipo convergencia: divergent
23:52:18 INFO:   GCI/Richardson NO APLICA para convergencia divergent (Celik 2008)
23:52:18 INFO:   Deltas entre niveles:
23:52:18 INFO:     dp 0.0020 -> 0.0030: delta=0.343004 N (4.3%)
23:52:18 INFO:     dp 0.0030 -> 0.0040: delta=8.095405 N (96.5%)
23:52:18 INFO: 
--- rotation (DIAGNOSTICO) ---
23:52:18 INFO:   Mallas: dp=0.002, 0.003, 0.004
23:52:18 INFO:   Valores: 7.039850, 4.867257, 4.892541 deg
23:52:18 INFO:   Tipo convergencia: oscillatory
23:52:18 INFO:   GCI/Richardson NO APLICA para convergencia oscillatory (Celik 2008)
23:52:18 INFO:   Deltas entre niveles:
23:52:18 INFO:     dp 0.0020 -> 0.0030: delta=2.172593 deg (30.9%)
23:52:18 INFO:     dp 0.0030 -> 0.0040: delta=0.025284 deg (0.5%)
23:52:18 INFO: 
=================================================================
23:52:18 INFO: VEREDICTO
23:52:18 INFO: =================================================================
23:52:18 INFO:   displacement: convergencia divergent -> GCI NO APLICA
23:52:18 INFO:   velocity: convergencia oscillatory -> GCI NO APLICA
23:52:18 INFO:   sph_force: convergencia divergent -> GCI NO APLICA
23:52:18 INFO: 
GCI JSON: C:\Users\Admin\Desktop\SPH-Tesis\data\results\conv_fix_f0700_full_gci.json
