11:59:20 INFO: =================================================================
11:59:20 INFO: CONVERGENCIA CORTA CERCA DE LA FRONTERA
11:59:20 INFO: =================================================================
11:59:20 INFO: prefix: frontier003_f0695
11:59:20 INFO: caso: dam_h=0.2, mass=1.0, fric=0.695, slope=1:20, rot_z=0.0
11:59:20 INFO: dps: [0.003]
11:59:20 INFO: csv: C:\Users\Admin\Desktop\SPH-Tesis\data\results\frontier003_f0695.csv
11:59:20 INFO: gci: C:\Users\Admin\Desktop\SPH-Tesis\data\results\frontier003_f0695_gci.json
11:59:20 INFO: sqlite table: convergence_frontier003_f0695
11:59:20 INFO: =================================================================
11:59:20 INFO: ESTUDIO DE CONVERGENCIA v2 — Config nueva (Moris)
11:59:20 INFO: =================================================================
11:59:20 INFO: dp a probar: [0.003]
11:59:20 INFO: Caso fijo: dam_h=0.2m, mass=1.0kg, fric=0.695, slope=1:20
11:59:20 INFO: Boulder pos: (6.5, 0.5, 0.025)
11:59:20 INFO: Metricas primarias: displacement, velocity, SPH force
11:59:20 INFO: Diagnostico: rotation
11:59:20 INFO: =================================================================
11:59:20 INFO: dsph_bin auto-detected: C:\DualSPHysics_v5.4.3\DualSPHysics_v5.4\bin\windows
11:59:20 INFO: Boulder 'BLIR3.stl' (escala=0.04, rot=(0.0, -2.862405226111748, 0.0)):
11:59:20 INFO:   Volumen:     0.00053023 m^3 (0.530 L)
11:59:20 INFO:   Densidad:    1886.0 kg/m^3
11:59:20 INFO:   Centro masa: [-0.020598, 0.011875, 0.017449] m (local)
11:59:20 INFO:   d_eq:        0.1004 m (10.0 cm)
11:59:20 INFO:   Bbox size:   0.1706 x 0.2100 x 0.0429 m
11:59:20 INFO:   dim_min/dp:  (requiere dp para calcular)
11:59:20 INFO: d_eq = 0.100421 m
11:59:20 INFO: 
=================================================================
11:59:20 INFO: [1/1] dp = 0.003
11:59:20 INFO: =================================================================
11:59:20 INFO: Calculando propiedades del boulder para caso 'frontier003_f0695_dp0003'...
11:59:20 INFO: Boulder 'BLIR3.stl' (escala=0.04, rot=(0.0, -2.862405226111748, 0.0)):
11:59:20 INFO:   Volumen:     0.00053023 m^3 (0.530 L)
11:59:20 INFO:   Densidad:    1886.0 kg/m^3
11:59:20 INFO:   Centro masa: [-0.020598, 0.011875, 0.017449] m (local)
11:59:20 INFO:   d_eq:        0.1004 m (10.0 cm)
11:59:20 INFO:   Bbox size:   0.1706 x 0.2100 x 0.0429 m
11:59:20 INFO:   dim_min/dp:  (requiere dp para calcular)
11:59:20 INFO:   Ajuste apoyo boulder: elevando 0.508 mm para dejar contacto exacto con la playa
11:59:20 INFO:   dp=0.003m -> dim_min/dp = 14.3 (0.0429m / 0.003m)
11:59:20 INFO:   Fillbox seed: (6.4794, 0.5119, 0.0430)
11:59:20 INFO:   Reubicando gauges: boulder x=[6.417, 6.587], y=0.512, z_mid=0.043
11:59:20 INFO:     V01: z 0.100 -> 0.0030 (fondo local)
11:59:20 INFO:     V02: z 0.100 -> 0.0030 (fondo local)
11:59:20 INFO:     V03: z 0.100 -> 0.0030 (fondo local)
11:59:20 INFO:     V04: z 0.100 -> 0.0030 (fondo local)
11:59:20 INFO:     V11: z 0.200 -> 0.1780 (fondo local)
11:59:20 INFO:     V05: -> upstream x=6.4139, z=0.0237
11:59:20 INFO:     V06: -> centroide x=6.4794
11:59:20 INFO:     V07: -> downstream x=6.5904, z=0.0325
11:59:20 INFO:     hmax03: y->0.512, z->0.0500, distlimit->0.04
11:59:20 INFO:     hmax04: y->0.512, z->0.1250, distlimit->0.04
11:59:20 INFO:     hmax05: y->0.512, z->0.1625, distlimit->0.04
11:59:20 INFO:   Gauges reubicados: 12 velocity, 8 maxz
11:59:20 INFO:   XML generado: C:\Users\Admin\Desktop\SPH-Tesis\cases\frontier003_f0695_dp0003\frontier003_f0695_dp0003_Def.xml
11:59:20 INFO: Generando canal: L_flat=6.0m, L_ramp=9.0m, slope=1:20, H_ramp=0.4500m, L_end=15.0m, W=1.0m, H=1.5m
11:59:20 INFO:   Canal: 10 verts, 12 faces, watertight=False
11:59:20 INFO:   STL guardado: C:\Users\Admin\Desktop\SPH-Tesis\cases\frontier003_f0695_dp0003\canal_1to20.stl
11:59:20 INFO:   Archivos copiados a C:\Users\Admin\Desktop\SPH-Tesis\cases\frontier003_f0695_dp0003
11:59:20 INFO:   PNG verificacion: C:\Users\Admin\Desktop\SPH-Tesis\cases\frontier003_f0695_dp0003\canal_verificacion.png
11:59:20 INFO:   [1/3] Geometry OK
11:59:20 INFO:   Timeout: sin limite (dp=0.003)
11:59:20 INFO: === Ejecutando caso: frontier003_f0695_dp0003 ===
11:59:20 INFO:   [frontier003_f0695_dp0003] GenCase: C:\DualSPHysics_v5.4.3\DualSPHysics_v5.4\bin\windows\GenCase_win64.exe frontier003_f0695_dp0003_Def frontier003_f0695_dp0003_out/frontier003_f0695_dp0003 -save:all
11:59:27 INFO:   [frontier003_f0695_dp0003] DualSPHysics: C:\DualSPHysics_v5.4.3\DualSPHysics_v5.4\bin\windows\DualSPHysics5.4_win64.exe -gpu:0 frontier003_f0695_dp0003_out/frontier003_f0695_dp0003 frontier003_f0695_dp0003_out
16:08:56 INFO:   CSVs recolectados (24): ChronoBody_forces.csv, ChronoExchange_mkbound_51.csv, GaugesMaxZ_hmax01.csv, GaugesMaxZ_hmax02.csv, GaugesMaxZ_hmax03.csv...
16:08:56 INFO:   [frontier003_f0695_dp0003] Simulacion completada exitosamente
16:08:56 INFO:   [frontier003_f0695_dp0003] Limpieza desactivada (cleanup_binaries=false)
16:08:56 INFO:   [frontier003_f0695_dp0003] Duracion total: 14975.2s
16:08:56 INFO:   [2/3] Sim OK (14975s)
16:08:56 INFO: Procesando caso: frontier003_f0695_dp0003
16:08:56 INFO:   ChronoExchange: 9500 filas, t=[0.5000, 9.9990]s
16:08:56 INFO:   Desplazamiento max: 0.002043m (2.03% de d_eq=0.1004m)
16:08:56 INFO:   Rotacion max: 4.55 grados
16:08:56 INFO:   Velocidad max boulder: 0.1000 m/s
16:08:56 INFO:   ChronoBody_forces: 9500 filas, bodies: {'blir', 'beach'}
16:08:56 INFO:   Fuerza SPH max: 8.4469N, Contacto max: 10725.9604N
16:08:56 INFO:   Gauges: 12 velocity, 8 maxZ
16:08:56 INFO:   Flujo max (gauge V06, dist=0.00m): 0.0000 m/s
16:08:56 INFO:   Agua max (gauge hmax04, dist=1.02m): 0.1294m
16:08:56 INFO:   Criterio: ESTABLE (umbral disp=5.0% d_eq=0.0050m, rot=5.0 deg)
16:08:56 INFO:   [3/3] Analisis OK - 249.6 min total
16:08:56 INFO:   SQLite: columna 'friction_coefficient' agregada a tabla 'convergence_frontier003_f0695'
16:08:56 INFO:   SQLite: columna 'slope_inv' agregada a tabla 'convergence_frontier003_f0695'
16:08:56 INFO: SQLite: 1 resultados guardados en C:\Users\Admin\Desktop\SPH-Tesis\data\results.sqlite:convergence_frontier003_f0695
16:08:56 INFO: 
=================================================================
16:08:56 INFO: RESUMEN CONVERGENCIA
16:08:56 INFO: =================================================================
16:08:56 INFO:       dp          Np    MemGPU     disp(m)     d%   vel(m/s)     d%    Fsph(N)     d%   rot(deg)    t(min)
16:08:56 INFO: ----------------------------------------------------------------------------------------------------------
16:08:56 INFO:   0.0030    17525854     3.3GB    0.002043            0.1000            8.4469              4.55     249.6
16:08:56 INFO: 
1/1 exitosos, total 249.6 min
16:08:56 INFO: CSV: C:\Users\Admin\Desktop\SPH-Tesis\data\results\frontier003_f0695.csv
