19:23:56 INFO: =================================================================
19:23:56 INFO: CONVERGENCIA CORTA CERCA DE LA FRONTERA
19:23:56 INFO: =================================================================
19:23:56 INFO: prefix: frontier003_f0675
19:23:56 INFO: caso: dam_h=0.2, mass=1.0, fric=0.675, slope=1:20, rot_z=0.0
19:23:56 INFO: dps: [0.003]
19:23:56 INFO: csv: C:\Users\Admin\Desktop\SPH-Tesis\data\results\frontier003_f0675.csv
19:23:56 INFO: gci: C:\Users\Admin\Desktop\SPH-Tesis\data\results\frontier003_f0675_gci.json
19:23:56 INFO: sqlite table: convergence_frontier003_f0675
19:23:56 INFO: =================================================================
19:23:56 INFO: ESTUDIO DE CONVERGENCIA v2 — Config nueva (Moris)
19:23:56 INFO: =================================================================
19:23:56 INFO: dp a probar: [0.003]
19:23:56 INFO: Caso fijo: dam_h=0.2m, mass=1.0kg, fric=0.675, slope=1:20
19:23:56 INFO: Boulder pos: (6.5, 0.5, 0.025)
19:23:56 INFO: Metricas primarias: displacement, velocity, SPH force
19:23:56 INFO: Diagnostico: rotation
19:23:56 INFO: =================================================================
19:23:56 INFO: dsph_bin auto-detected: C:\DualSPHysics_v5.4.3\DualSPHysics_v5.4\bin\windows
19:23:56 INFO: Boulder 'BLIR3.stl' (escala=0.04, rot=(0.0, -2.862405226111748, 0.0)):
19:23:56 INFO:   Volumen:     0.00053023 m^3 (0.530 L)
19:23:56 INFO:   Densidad:    1886.0 kg/m^3
19:23:56 INFO:   Centro masa: [-0.020598, 0.011875, 0.017449] m (local)
19:23:56 INFO:   d_eq:        0.1004 m (10.0 cm)
19:23:56 INFO:   Bbox size:   0.1706 x 0.2100 x 0.0429 m
19:23:56 INFO:   dim_min/dp:  (requiere dp para calcular)
19:23:56 INFO: d_eq = 0.100421 m
19:23:56 INFO: 
=================================================================
19:23:56 INFO: [1/1] dp = 0.003
19:23:56 INFO: =================================================================
19:23:56 INFO: Calculando propiedades del boulder para caso 'frontier003_f0675_dp0003'...
19:23:56 INFO: Boulder 'BLIR3.stl' (escala=0.04, rot=(0.0, -2.862405226111748, 0.0)):
19:23:56 INFO:   Volumen:     0.00053023 m^3 (0.530 L)
19:23:56 INFO:   Densidad:    1886.0 kg/m^3
19:23:56 INFO:   Centro masa: [-0.020598, 0.011875, 0.017449] m (local)
19:23:56 INFO:   d_eq:        0.1004 m (10.0 cm)
19:23:56 INFO:   Bbox size:   0.1706 x 0.2100 x 0.0429 m
19:23:56 INFO:   dim_min/dp:  (requiere dp para calcular)
19:23:56 INFO:   Ajuste apoyo boulder: elevando 0.508 mm para dejar contacto exacto con la playa
19:23:56 INFO:   dp=0.003m -> dim_min/dp = 14.3 (0.0429m / 0.003m)
19:23:56 INFO:   Fillbox seed: (6.4794, 0.5119, 0.0430)
19:23:56 INFO:   Reubicando gauges: boulder x=[6.417, 6.587], y=0.512, z_mid=0.043
19:23:56 INFO:     V01: z 0.100 -> 0.0030 (fondo local)
19:23:56 INFO:     V02: z 0.100 -> 0.0030 (fondo local)
19:23:56 INFO:     V03: z 0.100 -> 0.0030 (fondo local)
19:23:56 INFO:     V04: z 0.100 -> 0.0030 (fondo local)
19:23:56 INFO:     V11: z 0.200 -> 0.1780 (fondo local)
19:23:56 INFO:     V05: -> upstream x=6.4139, z=0.0237
19:23:56 INFO:     V06: -> centroide x=6.4794
19:23:56 INFO:     V07: -> downstream x=6.5904, z=0.0325
19:23:56 INFO:     hmax03: y->0.512, z->0.0500, distlimit->0.04
19:23:56 INFO:     hmax04: y->0.512, z->0.1250, distlimit->0.04
19:23:56 INFO:     hmax05: y->0.512, z->0.1625, distlimit->0.04
19:23:56 INFO:   Gauges reubicados: 12 velocity, 8 maxz
19:23:56 INFO:   XML generado: C:\Users\Admin\Desktop\SPH-Tesis\cases\frontier003_f0675_dp0003\frontier003_f0675_dp0003_Def.xml
19:23:56 INFO: Generando canal: L_flat=6.0m, L_ramp=9.0m, slope=1:20, H_ramp=0.4500m, L_end=15.0m, W=1.0m, H=1.5m
19:23:56 INFO:   Canal: 10 verts, 12 faces, watertight=False
19:23:56 INFO:   STL guardado: C:\Users\Admin\Desktop\SPH-Tesis\cases\frontier003_f0675_dp0003\canal_1to20.stl
19:23:56 INFO:   Archivos copiados a C:\Users\Admin\Desktop\SPH-Tesis\cases\frontier003_f0675_dp0003
19:23:56 INFO:   PNG verificacion: C:\Users\Admin\Desktop\SPH-Tesis\cases\frontier003_f0675_dp0003\canal_verificacion.png
19:23:56 INFO:   [1/3] Geometry OK
19:23:56 INFO:   Timeout: sin limite (dp=0.003)
19:23:56 INFO: === Ejecutando caso: frontier003_f0675_dp0003 ===
19:23:56 INFO:   [frontier003_f0675_dp0003] GenCase: C:\DualSPHysics_v5.4.3\DualSPHysics_v5.4\bin\windows\GenCase_win64.exe frontier003_f0675_dp0003_Def frontier003_f0675_dp0003_out/frontier003_f0675_dp0003 -save:all
19:24:03 INFO:   [frontier003_f0675_dp0003] DualSPHysics: C:\DualSPHysics_v5.4.3\DualSPHysics_v5.4\bin\windows\DualSPHysics5.4_win64.exe -gpu:0 frontier003_f0675_dp0003_out/frontier003_f0675_dp0003 frontier003_f0675_dp0003_out
23:32:00 INFO:   CSVs recolectados (24): ChronoBody_forces.csv, ChronoExchange_mkbound_51.csv, GaugesMaxZ_hmax01.csv, GaugesMaxZ_hmax02.csv, GaugesMaxZ_hmax03.csv...
23:32:00 INFO:   [frontier003_f0675_dp0003] Simulacion completada exitosamente
23:32:00 INFO:   [frontier003_f0675_dp0003] Limpieza desactivada (cleanup_binaries=false)
23:32:00 INFO:   [frontier003_f0675_dp0003] Duracion total: 14883.4s
23:32:00 INFO:   [2/3] Sim OK (14883s)
23:32:00 INFO: Procesando caso: frontier003_f0675_dp0003
23:32:00 INFO:   ChronoExchange: 9500 filas, t=[0.5000, 9.9990]s
23:32:00 INFO:   Desplazamiento max: 0.006016m (5.99% de d_eq=0.1004m)
23:32:00 INFO:   Rotacion max: 5.33 grados
23:32:00 INFO:   Velocidad max boulder: 0.1000 m/s
23:32:00 INFO:   ChronoBody_forces: 9500 filas, bodies: {'blir', 'beach'}
23:32:00 INFO:   Fuerza SPH max: 8.2871N, Contacto max: 10767.2962N
23:32:00 INFO:   Gauges: 12 velocity, 8 maxZ
23:32:00 INFO:   Flujo max (gauge V06, dist=0.00m): 0.0000 m/s
23:32:00 INFO:   Agua max (gauge hmax04, dist=1.02m): 0.1297m
23:32:00 INFO:   Criterio: FALLO (movimiento) (umbral disp=5.0% d_eq=0.0050m, rot=5.0 deg)
23:32:00 INFO:   [3/3] Analisis OK - 248.1 min total
23:32:00 INFO:   SQLite: columna 'friction_coefficient' agregada a tabla 'convergence_frontier003_f0675'
23:32:00 INFO:   SQLite: columna 'slope_inv' agregada a tabla 'convergence_frontier003_f0675'
23:32:00 INFO: SQLite: 1 resultados guardados en C:\Users\Admin\Desktop\SPH-Tesis\data\results.sqlite:convergence_frontier003_f0675
23:32:00 INFO: 
=================================================================
23:32:00 INFO: RESUMEN CONVERGENCIA
23:32:00 INFO: =================================================================
23:32:00 INFO:       dp          Np    MemGPU     disp(m)     d%   vel(m/s)     d%    Fsph(N)     d%   rot(deg)    t(min)
23:32:00 INFO: ----------------------------------------------------------------------------------------------------------
23:32:00 INFO:   0.0030    17525854     3.3GB    0.006016            0.1000            8.2871              5.33     248.1
23:32:00 INFO: 
1/1 exitosos, total 248.1 min
23:32:00 INFO: CSV: C:\Users\Admin\Desktop\SPH-Tesis\data\results\frontier003_f0675.csv
