06:39:57 INFO: =================================================================
06:39:57 INFO: CONVERGENCIA CORTA CERCA DE LA FRONTERA
06:39:57 INFO: =================================================================
06:39:57 INFO: prefix: scout_f06765625_dp0004
06:39:57 INFO: caso: dam_h=0.2, mass=1.0, fric=0.6765625, slope=1:20, rot_z=0.0
06:39:57 INFO: dps: [0.004]
06:39:57 INFO: csv: C:\Users\Admin\Desktop\SPH-Tesis\data\results\scout_f06765625_dp0004.csv
06:39:57 INFO: gci: C:\Users\Admin\Desktop\SPH-Tesis\data\results\scout_f06765625_dp0004_gci.json
06:39:57 INFO: sqlite table: convergence_scout_f06765625_dp0004
06:39:57 INFO: =================================================================
06:39:57 INFO: ESTUDIO DE CONVERGENCIA v2 — Config nueva (Moris)
06:39:57 INFO: =================================================================
06:39:57 INFO: dp a probar: [0.004]
06:39:57 INFO: Caso fijo: dam_h=0.2m, mass=1.0kg, fric=0.6765625, slope=1:20
06:39:57 INFO: Boulder pos: (6.5, 0.5, 0.025)
06:39:57 INFO: Metricas primarias: displacement, velocity, SPH force
06:39:57 INFO: Diagnostico: rotation
06:39:57 INFO: =================================================================
06:39:57 INFO: dsph_bin auto-detected: C:\DualSPHysics_v5.4.3\DualSPHysics_v5.4\bin\windows
06:39:57 INFO: Boulder 'BLIR3.stl' (escala=0.04, rot=(0.0, 0.0, 0.0)):
06:39:57 INFO:   Volumen:     0.00053023 m^3 (0.530 L)
06:39:57 INFO:   Densidad:    1886.0 kg/m^3
06:39:57 INFO:   Centro masa: [-0.019701, 0.011875, 0.018456] m (local)
06:39:57 INFO:   d_eq:        0.1004 m (10.0 cm)
06:39:57 INFO:   Bbox size:   0.1710 x 0.2100 x 0.0399 m
06:39:57 INFO:   dim_min/dp:  (requiere dp para calcular)
06:39:57 INFO: d_eq = 0.100421 m
06:39:57 INFO: 
=================================================================
06:39:57 INFO: [1/1] dp = 0.004
06:39:57 INFO: =================================================================
06:39:57 INFO: Calculando propiedades del boulder para caso 'scout_f06765625_dp0004_dp0004'...
06:39:57 INFO: Boulder 'BLIR3.stl' (escala=0.04, rot=(0.0, 0.0, 0.0)):
06:39:57 INFO:   Volumen:     0.00053023 m^3 (0.530 L)
06:39:57 INFO:   Densidad:    1886.0 kg/m^3
06:39:57 INFO:   Centro masa: [-0.019701, 0.011875, 0.018456] m (local)
06:39:57 INFO:   d_eq:        0.1004 m (10.0 cm)
06:39:57 INFO:   Bbox size:   0.1710 x 0.2100 x 0.0399 m
06:39:57 INFO:   dim_min/dp:  (requiere dp para calcular)
06:39:57 INFO:   dp=0.004m -> dim_min/dp = 10.0 (0.0399m / 0.004m)
06:39:57 WARNING:   ATENCION: Solo 10.0 particulas en la dimension minima del boulder. Recomendado: >=10.
06:39:57 INFO:   Fillbox seed: (6.4803, 0.5119, 0.0435)
06:39:57 INFO:   Reubicando gauges: boulder x=[6.417, 6.588], y=0.512, z_mid=0.044
06:39:57 INFO:     V01: z 0.100 -> 0.0040 (fondo local)
06:39:57 INFO:     V02: z 0.100 -> 0.0040 (fondo local)
06:39:57 INFO:     V03: z 0.100 -> 0.0040 (fondo local)
06:39:57 INFO:     V04: z 0.100 -> 0.0040 (fondo local)
06:39:57 INFO:     V11: z 0.200 -> 0.1790 (fondo local)
06:39:57 INFO:     V05: -> upstream x=6.4130, z=0.0247
06:39:57 INFO:     V06: -> centroide x=6.4803
06:39:57 INFO:     V07: -> downstream x=6.5921, z=0.0336
06:39:57 INFO:     hmax03: y->0.512, z->0.0500, distlimit->0.04
06:39:57 INFO:     hmax04: y->0.512, z->0.1250, distlimit->0.04
06:39:57 INFO:     hmax05: y->0.512, z->0.1625, distlimit->0.04
06:39:57 INFO:   Gauges reubicados: 12 velocity, 8 maxz
06:39:57 INFO:   XML generado: C:\Users\Admin\Desktop\SPH-Tesis\cases\scout_f06765625_dp0004_dp0004\scout_f06765625_dp0004_dp0004_Def.xml
06:39:57 INFO: Generando canal: L_flat=6.0m, L_ramp=9.0m, slope=1:20, H_ramp=0.4500m, L_end=15.0m, W=1.0m, H=1.5m
06:39:57 INFO:   Canal: 10 verts, 12 faces, watertight=False
06:39:57 INFO:   STL guardado: C:\Users\Admin\Desktop\SPH-Tesis\cases\scout_f06765625_dp0004_dp0004\canal_1to20.stl
06:39:57 INFO:   Archivos copiados a C:\Users\Admin\Desktop\SPH-Tesis\cases\scout_f06765625_dp0004_dp0004
06:39:57 INFO:   PNG verificacion: C:\Users\Admin\Desktop\SPH-Tesis\cases\scout_f06765625_dp0004_dp0004\canal_verificacion.png
06:39:57 INFO:   [1/3] Geometry OK
06:39:57 INFO:   Timeout: sin limite (dp=0.004)
06:39:57 INFO: === Ejecutando caso: scout_f06765625_dp0004_dp0004 ===
06:39:57 INFO:   [scout_f06765625_dp0004_dp0004] GenCase: C:\DualSPHysics_v5.4.3\DualSPHysics_v5.4\bin\windows\GenCase_win64.exe scout_f06765625_dp0004_dp0004_Def scout_f06765625_dp0004_dp0004_out/scout_f06765625_dp0004_dp0004 -save:all
06:40:01 INFO:   [scout_f06765625_dp0004_dp0004] DualSPHysics: C:\DualSPHysics_v5.4.3\DualSPHysics_v5.4\bin\windows\DualSPHysics5.4_win64.exe -gpu:0 scout_f06765625_dp0004_dp0004_out/scout_f06765625_dp0004_dp0004 scout_f06765625_dp0004_dp0004_out
08:08:52 INFO:   CSVs recolectados (24): ChronoBody_forces.csv, ChronoExchange_mkbound_51.csv, GaugesMaxZ_hmax01.csv, GaugesMaxZ_hmax02.csv, GaugesMaxZ_hmax03.csv...
08:08:52 INFO:   [scout_f06765625_dp0004_dp0004] Simulacion completada exitosamente
08:08:52 INFO:   [scout_f06765625_dp0004_dp0004] Limpieza desactivada (cleanup_binaries=false)
08:08:52 INFO:   [scout_f06765625_dp0004_dp0004] Duracion total: 5335.4s
08:08:52 INFO:   [2/3] Sim OK (5335s)
08:08:52 INFO: Procesando caso: scout_f06765625_dp0004_dp0004
08:08:52 INFO:   ChronoExchange: 9500 filas, t=[0.5000, 9.9990]s
08:08:52 INFO:   Desplazamiento max: 0.005091m (5.07% de d_eq=0.1004m)
08:08:52 INFO:   Rotacion max: 7.76 grados
08:08:52 INFO:   Velocidad max boulder: 0.0887 m/s
08:08:52 INFO:   ChronoBody_forces: 9500 filas, bodies: {'blir', 'beach'}
08:08:52 INFO:   Fuerza SPH max: 14.5347N, Contacto max: 2371.2690N
08:08:52 INFO:   Gauges: 12 velocity, 8 maxZ
08:08:52 INFO:   Flujo max (gauge V06, dist=0.00m): 0.0000 m/s
08:08:52 INFO:   Agua max (gauge hmax04, dist=1.02m): 0.1279m
08:08:52 INFO:   Criterio: FALLO (movimiento) (umbral disp=5.0% d_eq=0.0050m, rot=5.0 deg)
08:08:52 INFO:   [3/3] Analisis OK - 88.9 min total
08:08:53 INFO:   SQLite: columna 'friction_coefficient' agregada a tabla 'convergence_scout_f06765625_dp0004'
08:08:53 INFO:   SQLite: columna 'slope_inv' agregada a tabla 'convergence_scout_f06765625_dp0004'
08:08:53 INFO: SQLite: 1 resultados guardados en C:\Users\Admin\Desktop\SPH-Tesis\data\results.sqlite:convergence_scout_f06765625_dp0004
08:08:53 INFO: 
=================================================================
08:08:53 INFO: RESUMEN CONVERGENCIA
08:08:53 INFO: =================================================================
08:08:53 INFO:       dp          Np    MemGPU     disp(m)     d%   vel(m/s)     d%    Fsph(N)     d%   rot(deg)    t(min)
08:08:53 INFO: ----------------------------------------------------------------------------------------------------------
08:08:53 INFO:   0.0040     8152156     1.5GB    0.005091            0.0887           14.5347              7.76      88.9
08:08:53 INFO: 
1/1 exitosos, total 88.9 min
08:08:53 INFO: CSV: C:\Users\Admin\Desktop\SPH-Tesis\data\results\scout_f06765625_dp0004.csv
