11:07:39 INFO: =================================================================
11:07:39 INFO: CONVERGENCIA CORTA CERCA DE LA FRONTERA
11:07:39 INFO: =================================================================
11:07:39 INFO: prefix: scout_f068125_dp0004
11:07:39 INFO: caso: dam_h=0.2, mass=1.0, fric=0.68125, slope=1:20, rot_z=0.0
11:07:39 INFO: dps: [0.004]
11:07:39 INFO: csv: C:\Users\Admin\Desktop\SPH-Tesis\data\results\scout_f068125_dp0004.csv
11:07:39 INFO: gci: C:\Users\Admin\Desktop\SPH-Tesis\data\results\scout_f068125_dp0004_gci.json
11:07:39 INFO: sqlite table: convergence_scout_f068125_dp0004
11:07:39 INFO: =================================================================
11:07:39 INFO: ESTUDIO DE CONVERGENCIA v2 — Config nueva (Moris)
11:07:39 INFO: =================================================================
11:07:39 INFO: dp a probar: [0.004]
11:07:39 INFO: Caso fijo: dam_h=0.2m, mass=1.0kg, fric=0.68125, slope=1:20
11:07:39 INFO: Boulder pos: (6.5, 0.5, 0.025)
11:07:39 INFO: Metricas primarias: displacement, velocity, SPH force
11:07:39 INFO: Diagnostico: rotation
11:07:39 INFO: =================================================================
11:07:39 INFO: dsph_bin auto-detected: C:\DualSPHysics_v5.4.3\DualSPHysics_v5.4\bin\windows
11:07:39 INFO: Boulder 'BLIR3.stl' (escala=0.04, rot=(0.0, 0.0, 0.0)):
11:07:39 INFO:   Volumen:     0.00053023 m^3 (0.530 L)
11:07:39 INFO:   Densidad:    1886.0 kg/m^3
11:07:39 INFO:   Centro masa: [-0.019701, 0.011875, 0.018456] m (local)
11:07:39 INFO:   d_eq:        0.1004 m (10.0 cm)
11:07:39 INFO:   Bbox size:   0.1710 x 0.2100 x 0.0399 m
11:07:39 INFO:   dim_min/dp:  (requiere dp para calcular)
11:07:39 INFO: d_eq = 0.100421 m
11:07:39 INFO: 
=================================================================
11:07:39 INFO: [1/1] dp = 0.004
11:07:39 INFO: =================================================================
11:07:39 INFO: Calculando propiedades del boulder para caso 'scout_f068125_dp0004_dp0004'...
11:07:39 INFO: Boulder 'BLIR3.stl' (escala=0.04, rot=(0.0, 0.0, 0.0)):
11:07:39 INFO:   Volumen:     0.00053023 m^3 (0.530 L)
11:07:39 INFO:   Densidad:    1886.0 kg/m^3
11:07:39 INFO:   Centro masa: [-0.019701, 0.011875, 0.018456] m (local)
11:07:39 INFO:   d_eq:        0.1004 m (10.0 cm)
11:07:39 INFO:   Bbox size:   0.1710 x 0.2100 x 0.0399 m
11:07:39 INFO:   dim_min/dp:  (requiere dp para calcular)
11:07:39 INFO:   dp=0.004m -> dim_min/dp = 10.0 (0.0399m / 0.004m)
11:07:39 WARNING:   ATENCION: Solo 10.0 particulas en la dimension minima del boulder. Recomendado: >=10.
11:07:39 INFO:   Fillbox seed: (6.4803, 0.5119, 0.0435)
11:07:39 INFO:   Reubicando gauges: boulder x=[6.417, 6.588], y=0.512, z_mid=0.044
11:07:39 INFO:     V01: z 0.100 -> 0.0040 (fondo local)
11:07:39 INFO:     V02: z 0.100 -> 0.0040 (fondo local)
11:07:39 INFO:     V03: z 0.100 -> 0.0040 (fondo local)
11:07:39 INFO:     V04: z 0.100 -> 0.0040 (fondo local)
11:07:39 INFO:     V11: z 0.200 -> 0.1790 (fondo local)
11:07:39 INFO:     V05: -> upstream x=6.4130, z=0.0247
11:07:39 INFO:     V06: -> centroide x=6.4803
11:07:39 INFO:     V07: -> downstream x=6.5921, z=0.0336
11:07:39 INFO:     hmax03: y->0.512, z->0.0500, distlimit->0.04
11:07:39 INFO:     hmax04: y->0.512, z->0.1250, distlimit->0.04
11:07:39 INFO:     hmax05: y->0.512, z->0.1625, distlimit->0.04
11:07:39 INFO:   Gauges reubicados: 12 velocity, 8 maxz
11:07:39 INFO:   XML generado: C:\Users\Admin\Desktop\SPH-Tesis\cases\scout_f068125_dp0004_dp0004\scout_f068125_dp0004_dp0004_Def.xml
11:07:39 INFO: Generando canal: L_flat=6.0m, L_ramp=9.0m, slope=1:20, H_ramp=0.4500m, L_end=15.0m, W=1.0m, H=1.5m
11:07:39 INFO:   Canal: 10 verts, 12 faces, watertight=False
11:07:39 INFO:   STL guardado: C:\Users\Admin\Desktop\SPH-Tesis\cases\scout_f068125_dp0004_dp0004\canal_1to20.stl
11:07:39 INFO:   Archivos copiados a C:\Users\Admin\Desktop\SPH-Tesis\cases\scout_f068125_dp0004_dp0004
11:07:40 INFO:   PNG verificacion: C:\Users\Admin\Desktop\SPH-Tesis\cases\scout_f068125_dp0004_dp0004\canal_verificacion.png
11:07:40 INFO:   [1/3] Geometry OK
11:07:40 INFO:   Timeout: sin limite (dp=0.004)
11:07:40 INFO: === Ejecutando caso: scout_f068125_dp0004_dp0004 ===
11:07:40 INFO:   [scout_f068125_dp0004_dp0004] GenCase: C:\DualSPHysics_v5.4.3\DualSPHysics_v5.4\bin\windows\GenCase_win64.exe scout_f068125_dp0004_dp0004_Def scout_f068125_dp0004_dp0004_out/scout_f068125_dp0004_dp0004 -save:all
11:07:43 INFO:   [scout_f068125_dp0004_dp0004] DualSPHysics: C:\DualSPHysics_v5.4.3\DualSPHysics_v5.4\bin\windows\DualSPHysics5.4_win64.exe -gpu:0 scout_f068125_dp0004_dp0004_out/scout_f068125_dp0004_dp0004 scout_f068125_dp0004_dp0004_out
12:37:22 INFO:   CSVs recolectados (24): ChronoBody_forces.csv, ChronoExchange_mkbound_51.csv, GaugesMaxZ_hmax01.csv, GaugesMaxZ_hmax02.csv, GaugesMaxZ_hmax03.csv...
12:37:22 INFO:   [scout_f068125_dp0004_dp0004] Simulacion completada exitosamente
12:37:22 INFO:   [scout_f068125_dp0004_dp0004] Limpieza desactivada (cleanup_binaries=false)
12:37:22 INFO:   [scout_f068125_dp0004_dp0004] Duracion total: 5382.0s
12:37:22 INFO:   [2/3] Sim OK (5382s)
12:37:22 INFO: Procesando caso: scout_f068125_dp0004_dp0004
12:37:22 INFO:   ChronoExchange: 9500 filas, t=[0.5000, 9.9990]s
12:37:22 INFO:   Desplazamiento max: 0.003102m (3.09% de d_eq=0.1004m)
12:37:22 INFO:   Rotacion max: 7.79 grados
12:37:22 INFO:   Velocidad max boulder: 0.0905 m/s
12:37:22 INFO:   ChronoBody_forces: 9500 filas, bodies: {'blir', 'beach'}
12:37:22 INFO:   Fuerza SPH max: 14.6519N, Contacto max: 2371.8529N
12:37:22 INFO:   Gauges: 12 velocity, 8 maxZ
12:37:22 INFO:   Flujo max (gauge V06, dist=0.00m): 0.0000 m/s
12:37:22 INFO:   Agua max (gauge hmax04, dist=1.02m): 0.1261m
12:37:22 INFO:   Criterio: FALLO (movimiento) (umbral disp=5.0% d_eq=0.0050m, rot=5.0 deg)
12:37:22 INFO:   [3/3] Analisis OK - 89.7 min total
12:37:22 INFO:   SQLite: columna 'friction_coefficient' agregada a tabla 'convergence_scout_f068125_dp0004'
12:37:22 INFO:   SQLite: columna 'slope_inv' agregada a tabla 'convergence_scout_f068125_dp0004'
12:37:22 INFO: SQLite: 1 resultados guardados en C:\Users\Admin\Desktop\SPH-Tesis\data\results.sqlite:convergence_scout_f068125_dp0004
12:37:22 INFO: 
=================================================================
12:37:22 INFO: RESUMEN CONVERGENCIA
12:37:22 INFO: =================================================================
12:37:22 INFO:       dp          Np    MemGPU     disp(m)     d%   vel(m/s)     d%    Fsph(N)     d%   rot(deg)    t(min)
12:37:22 INFO: ----------------------------------------------------------------------------------------------------------
12:37:22 INFO:   0.0040     8152156     1.5GB    0.003102            0.0905           14.6519              7.79      89.7
12:37:22 INFO: 
1/1 exitosos, total 89.7 min
12:37:22 INFO: CSV: C:\Users\Admin\Desktop\SPH-Tesis\data\results\scout_f068125_dp0004.csv
