13:47:51 INFO: =================================================================
13:47:51 INFO: CONVERGENCIA CORTA CERCA DE LA FRONTERA
13:47:51 INFO: =================================================================
13:47:51 INFO: prefix: scout_f0625_dp0004
13:47:51 INFO: caso: dam_h=0.2, mass=1.0, fric=0.625, slope=1:20, rot_z=0.0
13:47:51 INFO: dps: [0.004]
13:47:51 INFO: csv: C:\Users\Admin\Desktop\SPH-Tesis\data\results\scout_f0625_dp0004.csv
13:47:51 INFO: gci: C:\Users\Admin\Desktop\SPH-Tesis\data\results\scout_f0625_dp0004_gci.json
13:47:51 INFO: sqlite table: convergence_scout_f0625_dp0004
13:47:51 INFO: =================================================================
13:47:51 INFO: ESTUDIO DE CONVERGENCIA v2 — Config nueva (Moris)
13:47:51 INFO: =================================================================
13:47:51 INFO: dp a probar: [0.004]
13:47:51 INFO: Caso fijo: dam_h=0.2m, mass=1.0kg, fric=0.625, slope=1:20
13:47:51 INFO: Boulder pos: (6.5, 0.5, 0.025)
13:47:51 INFO: Metricas primarias: displacement, velocity, SPH force
13:47:51 INFO: Diagnostico: rotation
13:47:51 INFO: =================================================================
13:47:51 INFO: dsph_bin auto-detected: C:\DualSPHysics_v5.4.3\DualSPHysics_v5.4\bin\windows
13:47:51 INFO: Boulder 'BLIR3.stl' (escala=0.04, rot=(0.0, 0.0, 0.0)):
13:47:51 INFO:   Volumen:     0.00053023 m^3 (0.530 L)
13:47:51 INFO:   Densidad:    1886.0 kg/m^3
13:47:51 INFO:   Centro masa: [-0.019701, 0.011875, 0.018456] m (local)
13:47:51 INFO:   d_eq:        0.1004 m (10.0 cm)
13:47:51 INFO:   Bbox size:   0.1710 x 0.2100 x 0.0399 m
13:47:51 INFO:   dim_min/dp:  (requiere dp para calcular)
13:47:51 INFO: d_eq = 0.100421 m
13:47:51 INFO: 
=================================================================
13:47:51 INFO: [1/1] dp = 0.004
13:47:51 INFO: =================================================================
13:47:51 INFO: Calculando propiedades del boulder para caso 'scout_f0625_dp0004_dp0004'...
13:47:51 INFO: Boulder 'BLIR3.stl' (escala=0.04, rot=(0.0, 0.0, 0.0)):
13:47:51 INFO:   Volumen:     0.00053023 m^3 (0.530 L)
13:47:51 INFO:   Densidad:    1886.0 kg/m^3
13:47:51 INFO:   Centro masa: [-0.019701, 0.011875, 0.018456] m (local)
13:47:51 INFO:   d_eq:        0.1004 m (10.0 cm)
13:47:51 INFO:   Bbox size:   0.1710 x 0.2100 x 0.0399 m
13:47:51 INFO:   dim_min/dp:  (requiere dp para calcular)
13:47:51 INFO:   dp=0.004m -> dim_min/dp = 10.0 (0.0399m / 0.004m)
13:47:51 WARNING:   ATENCION: Solo 10.0 particulas en la dimension minima del boulder. Recomendado: >=10.
13:47:51 INFO:   Fillbox seed: (6.4803, 0.5119, 0.0435)
13:47:51 INFO:   Reubicando gauges: boulder x=[6.417, 6.588], y=0.512, z_mid=0.044
13:47:51 INFO:     V01: z 0.100 -> 0.0040 (fondo local)
13:47:51 INFO:     V02: z 0.100 -> 0.0040 (fondo local)
13:47:51 INFO:     V03: z 0.100 -> 0.0040 (fondo local)
13:47:51 INFO:     V04: z 0.100 -> 0.0040 (fondo local)
13:47:51 INFO:     V11: z 0.200 -> 0.1790 (fondo local)
13:47:51 INFO:     V05: -> upstream x=6.4130, z=0.0247
13:47:51 INFO:     V06: -> centroide x=6.4803
13:47:51 INFO:     V07: -> downstream x=6.5921, z=0.0336
13:47:51 INFO:     hmax03: y->0.512, z->0.0500, distlimit->0.04
13:47:51 INFO:     hmax04: y->0.512, z->0.1250, distlimit->0.04
13:47:51 INFO:     hmax05: y->0.512, z->0.1625, distlimit->0.04
13:47:51 INFO:   Gauges reubicados: 12 velocity, 8 maxz
13:47:51 INFO:   XML generado: C:\Users\Admin\Desktop\SPH-Tesis\cases\scout_f0625_dp0004_dp0004\scout_f0625_dp0004_dp0004_Def.xml
13:47:51 INFO: Generando canal: L_flat=6.0m, L_ramp=9.0m, slope=1:20, H_ramp=0.4500m, L_end=15.0m, W=1.0m, H=1.5m
13:47:51 INFO:   Canal: 10 verts, 12 faces, watertight=False
13:47:51 INFO:   STL guardado: C:\Users\Admin\Desktop\SPH-Tesis\cases\scout_f0625_dp0004_dp0004\canal_1to20.stl
13:47:51 INFO:   Archivos copiados a C:\Users\Admin\Desktop\SPH-Tesis\cases\scout_f0625_dp0004_dp0004
13:47:51 INFO:   PNG verificacion: C:\Users\Admin\Desktop\SPH-Tesis\cases\scout_f0625_dp0004_dp0004\canal_verificacion.png
13:47:51 INFO:   [1/3] Geometry OK
13:47:51 INFO:   Timeout: sin limite (dp=0.004)
13:47:51 INFO: === Ejecutando caso: scout_f0625_dp0004_dp0004 ===
13:47:51 INFO:   [scout_f0625_dp0004_dp0004] GenCase: C:\DualSPHysics_v5.4.3\DualSPHysics_v5.4\bin\windows\GenCase_win64.exe scout_f0625_dp0004_dp0004_Def scout_f0625_dp0004_dp0004_out/scout_f0625_dp0004_dp0004 -save:all
13:47:54 INFO:   [scout_f0625_dp0004_dp0004] DualSPHysics: C:\DualSPHysics_v5.4.3\DualSPHysics_v5.4\bin\windows\DualSPHysics5.4_win64.exe -gpu:0 scout_f0625_dp0004_dp0004_out/scout_f0625_dp0004_dp0004 scout_f0625_dp0004_dp0004_out
15:17:27 INFO:   CSVs recolectados (24): ChronoBody_forces.csv, ChronoExchange_mkbound_51.csv, GaugesMaxZ_hmax01.csv, GaugesMaxZ_hmax02.csv, GaugesMaxZ_hmax03.csv...
15:17:27 INFO:   [scout_f0625_dp0004_dp0004] Simulacion completada exitosamente
15:17:27 INFO:   [scout_f0625_dp0004_dp0004] Limpieza desactivada (cleanup_binaries=false)
15:17:27 INFO:   [scout_f0625_dp0004_dp0004] Duracion total: 5376.5s
15:17:27 INFO:   [2/3] Sim OK (5377s)
15:17:27 INFO: Procesando caso: scout_f0625_dp0004_dp0004
15:17:27 INFO:   ChronoExchange: 9500 filas, t=[0.5000, 9.9990]s
15:17:27 INFO:   Desplazamiento max: 0.022193m (22.10% de d_eq=0.1004m)
15:17:27 INFO:   Rotacion max: 9.98 grados
15:17:27 INFO:   Velocidad max boulder: 0.0919 m/s
15:17:27 INFO:   ChronoBody_forces: 9500 filas, bodies: {'blir', 'beach'}
15:17:27 INFO:   Fuerza SPH max: 14.7709N, Contacto max: 2361.4011N
15:17:27 INFO:   Gauges: 12 velocity, 8 maxZ
15:17:27 INFO:   Flujo max (gauge V06, dist=0.00m): 0.0000 m/s
15:17:27 INFO:   Agua max (gauge hmax04, dist=1.02m): 0.1263m
15:17:27 INFO:   Criterio: FALLO (movimiento) (umbral disp=5.0% d_eq=0.0050m, rot=5.0 deg)
15:17:27 INFO:   [3/3] Analisis OK - 89.6 min total
15:17:27 INFO:   SQLite: columna 'friction_coefficient' agregada a tabla 'convergence_scout_f0625_dp0004'
15:17:28 INFO:   SQLite: columna 'slope_inv' agregada a tabla 'convergence_scout_f0625_dp0004'
15:17:28 INFO: SQLite: 1 resultados guardados en C:\Users\Admin\Desktop\SPH-Tesis\data\results.sqlite:convergence_scout_f0625_dp0004
15:17:28 INFO: 
=================================================================
15:17:28 INFO: RESUMEN CONVERGENCIA
15:17:28 INFO: =================================================================
15:17:28 INFO:       dp          Np    MemGPU     disp(m)     d%   vel(m/s)     d%    Fsph(N)     d%   rot(deg)    t(min)
15:17:28 INFO: ----------------------------------------------------------------------------------------------------------
15:17:28 INFO:   0.0040     8152156     1.5GB    0.022193            0.0919           14.7709              9.98      89.6
15:17:28 INFO: 
1/1 exitosos, total 89.6 min
15:17:28 INFO: CSV: C:\Users\Admin\Desktop\SPH-Tesis\data\results\scout_f0625_dp0004.csv
