22:09:11 INFO: =================================================================
22:09:11 INFO: CONVERGENCIA CORTA CERCA DE LA FRONTERA
22:09:11 INFO: =================================================================
22:09:11 INFO: prefix: smoke_fix_geom
22:09:11 INFO: caso: dam_h=0.2, mass=1.0, fric=0.675, slope=1:20, rot_z=0.0
22:09:11 INFO: dps: [0.004]
22:09:11 INFO: csv: C:\Users\Admin\Desktop\SPH-Tesis\data\results\smoke_fix_geom.csv
22:09:11 INFO: gci: C:\Users\Admin\Desktop\SPH-Tesis\data\results\smoke_fix_geom_gci.json
22:09:11 INFO: sqlite table: convergence_smoke_fix_geom
22:09:11 INFO: =================================================================
22:09:11 INFO: ESTUDIO DE CONVERGENCIA v2 — Config nueva (Moris)
22:09:11 INFO: =================================================================
22:09:11 INFO: dp a probar: [0.004]
22:09:11 INFO: Caso fijo: dam_h=0.2m, mass=1.0kg, fric=0.675, slope=1:20
22:09:11 INFO: Boulder pos: (6.5, 0.5, 0.025)
22:09:11 INFO: Metricas primarias: displacement, velocity, SPH force
22:09:11 INFO: Diagnostico: rotation
22:09:11 INFO: =================================================================
22:09:11 INFO: dsph_bin auto-detected: C:\DualSPHysics_v5.4.3\DualSPHysics_v5.4\bin\windows
22:09:11 INFO: Boulder 'BLIR3.stl' (escala=0.04, rot=(0.0, -2.862405226111748, 0.0)):
22:09:11 INFO:   Volumen:     0.00053023 m^3 (0.530 L)
22:09:11 INFO:   Densidad:    1886.0 kg/m^3
22:09:11 INFO:   Centro masa: [-0.020598, 0.011875, 0.017449] m (local)
22:09:11 INFO:   d_eq:        0.1004 m (10.0 cm)
22:09:11 INFO:   Bbox size:   0.1706 x 0.2100 x 0.0429 m
22:09:11 INFO:   dim_min/dp:  (requiere dp para calcular)
22:09:11 INFO: d_eq = 0.100421 m
22:09:11 INFO: 
=================================================================
22:09:11 INFO: [1/1] dp = 0.004
22:09:11 INFO: =================================================================
22:09:11 INFO: Calculando propiedades del boulder para caso 'smoke_fix_geom_dp0004'...
22:09:11 INFO: Boulder 'BLIR3.stl' (escala=0.04, rot=(0.0, -2.862405226111748, 0.0)):
22:09:11 INFO:   Volumen:     0.00053023 m^3 (0.530 L)
22:09:11 INFO:   Densidad:    1886.0 kg/m^3
22:09:11 INFO:   Centro masa: [-0.020598, 0.011875, 0.017449] m (local)
22:09:11 INFO:   d_eq:        0.1004 m (10.0 cm)
22:09:11 INFO:   Bbox size:   0.1706 x 0.2100 x 0.0429 m
22:09:11 INFO:   dim_min/dp:  (requiere dp para calcular)
22:09:11 INFO:   Ajuste apoyo boulder: elevando 0.508 mm para dejar contacto exacto con la playa
22:09:11 INFO:   dp=0.004m -> dim_min/dp = 10.7 (0.0429m / 0.004m)
22:09:11 INFO:   Fillbox seed: (6.4794, 0.5119, 0.0430)
22:09:11 INFO:   Reubicando gauges: boulder x=[6.417, 6.587], y=0.512, z_mid=0.043
22:09:11 INFO:     V01: z 0.100 -> 0.0040 (fondo local)
22:09:11 INFO:     V02: z 0.100 -> 0.0040 (fondo local)
22:09:11 INFO:     V03: z 0.100 -> 0.0040 (fondo local)
22:09:11 INFO:     V04: z 0.100 -> 0.0040 (fondo local)
22:09:11 INFO:     V11: z 0.200 -> 0.1790 (fondo local)
22:09:11 INFO:     V05: -> upstream x=6.4129, z=0.0246
22:09:11 INFO:     V06: -> centroide x=6.4794
22:09:11 INFO:     V07: -> downstream x=6.5914, z=0.0336
22:09:11 INFO:     hmax03: y->0.512, z->0.0500, distlimit->0.04
22:09:11 INFO:     hmax04: y->0.512, z->0.1250, distlimit->0.04
22:09:11 INFO:     hmax05: y->0.512, z->0.1625, distlimit->0.04
22:09:11 INFO:   Gauges reubicados: 12 velocity, 8 maxz
22:09:11 INFO:   XML generado: C:\Users\Admin\Desktop\SPH-Tesis\cases\smoke_fix_geom_dp0004\smoke_fix_geom_dp0004_Def.xml
22:09:11 INFO: Generando canal: L_flat=6.0m, L_ramp=9.0m, slope=1:20, H_ramp=0.4500m, L_end=15.0m, W=1.0m, H=1.5m
22:09:11 INFO:   Canal: 10 verts, 12 faces, watertight=False
22:09:11 INFO:   STL guardado: C:\Users\Admin\Desktop\SPH-Tesis\cases\smoke_fix_geom_dp0004\canal_1to20.stl
22:09:11 INFO:   Archivos copiados a C:\Users\Admin\Desktop\SPH-Tesis\cases\smoke_fix_geom_dp0004
22:09:11 INFO:   PNG verificacion: C:\Users\Admin\Desktop\SPH-Tesis\cases\smoke_fix_geom_dp0004\canal_verificacion.png
22:09:11 INFO:   [1/3] Geometry OK
22:09:11 INFO:   Timeout: sin limite (dp=0.004)
22:09:11 INFO: === Ejecutando caso: smoke_fix_geom_dp0004 ===
22:09:11 INFO:   [smoke_fix_geom_dp0004] GenCase: C:\DualSPHysics_v5.4.3\DualSPHysics_v5.4\bin\windows\GenCase_win64.exe smoke_fix_geom_dp0004_Def smoke_fix_geom_dp0004_out/smoke_fix_geom_dp0004 -save:all
22:09:17 INFO:   [smoke_fix_geom_dp0004] DualSPHysics: C:\DualSPHysics_v5.4.3\DualSPHysics_v5.4\bin\windows\DualSPHysics5.4_win64.exe -gpu:0 smoke_fix_geom_dp0004_out/smoke_fix_geom_dp0004 smoke_fix_geom_dp0004_out
22:09:51 INFO:   [smoke_fix_geom_dp0004] Limpieza desactivada (cleanup_binaries=false)
22:09:51 INFO:   [smoke_fix_geom_dp0004] Duracion total: 40.7s
22:13:27 INFO: =================================================================
22:13:27 INFO: CONVERGENCIA CORTA CERCA DE LA FRONTERA
22:13:27 INFO: =================================================================
22:13:27 INFO: prefix: smoke_fix_geom
22:13:27 INFO: caso: dam_h=0.2, mass=1.0, fric=0.675, slope=1:20, rot_z=0.0
22:13:27 INFO: dps: [0.004]
22:13:27 INFO: csv: C:\Users\Admin\Desktop\SPH-Tesis\data\results\smoke_fix_geom.csv
22:13:27 INFO: gci: C:\Users\Admin\Desktop\SPH-Tesis\data\results\smoke_fix_geom_gci.json
22:13:27 INFO: sqlite table: convergence_smoke_fix_geom
22:13:27 INFO: =================================================================
22:13:27 INFO: ESTUDIO DE CONVERGENCIA v2 — Config nueva (Moris)
22:13:27 INFO: =================================================================
22:13:27 INFO: dp a probar: [0.004]
22:13:27 INFO: Caso fijo: dam_h=0.2m, mass=1.0kg, fric=0.675, slope=1:20
22:13:27 INFO: Boulder pos: (6.5, 0.5, 0.025)
22:13:27 INFO: Metricas primarias: displacement, velocity, SPH force
22:13:27 INFO: Diagnostico: rotation
22:13:27 INFO: =================================================================
22:13:27 INFO: dsph_bin auto-detected: C:\DualSPHysics_v5.4.3\DualSPHysics_v5.4\bin\windows
22:13:27 INFO: Boulder 'BLIR3.stl' (escala=0.04, rot=(0.0, -2.862405226111748, 0.0)):
22:13:27 INFO:   Volumen:     0.00053023 m^3 (0.530 L)
22:13:27 INFO:   Densidad:    1886.0 kg/m^3
22:13:27 INFO:   Centro masa: [-0.020598, 0.011875, 0.017449] m (local)
22:13:27 INFO:   d_eq:        0.1004 m (10.0 cm)
22:13:27 INFO:   Bbox size:   0.1706 x 0.2100 x 0.0429 m
22:13:27 INFO:   dim_min/dp:  (requiere dp para calcular)
22:13:27 INFO: d_eq = 0.100421 m
22:13:27 INFO: 
=================================================================
22:13:27 INFO: [1/1] dp = 0.004
22:13:27 INFO: =================================================================
22:13:27 INFO: Calculando propiedades del boulder para caso 'smoke_fix_geom_dp0004'...
22:13:27 INFO: Boulder 'BLIR3.stl' (escala=0.04, rot=(0.0, -2.862405226111748, 0.0)):
22:13:27 INFO:   Volumen:     0.00053023 m^3 (0.530 L)
22:13:27 INFO:   Densidad:    1886.0 kg/m^3
22:13:27 INFO:   Centro masa: [-0.020598, 0.011875, 0.017449] m (local)
22:13:27 INFO:   d_eq:        0.1004 m (10.0 cm)
22:13:27 INFO:   Bbox size:   0.1706 x 0.2100 x 0.0429 m
22:13:27 INFO:   dim_min/dp:  (requiere dp para calcular)
22:13:27 INFO:   Ajuste apoyo boulder: elevando 0.508 mm para dejar contacto exacto con la playa
22:13:27 INFO:   dp=0.004m -> dim_min/dp = 10.7 (0.0429m / 0.004m)
22:13:27 INFO:   Fillbox seed: (6.4794, 0.5119, 0.0430)
22:13:27 INFO:   Reubicando gauges: boulder x=[6.417, 6.587], y=0.512, z_mid=0.043
22:13:27 INFO:     V01: z 0.100 -> 0.0040 (fondo local)
22:13:27 INFO:     V02: z 0.100 -> 0.0040 (fondo local)
22:13:27 INFO:     V03: z 0.100 -> 0.0040 (fondo local)
22:13:27 INFO:     V04: z 0.100 -> 0.0040 (fondo local)
22:13:27 INFO:     V11: z 0.200 -> 0.1790 (fondo local)
22:13:27 INFO:     V05: -> upstream x=6.4129, z=0.0246
22:13:27 INFO:     V06: -> centroide x=6.4794
22:13:27 INFO:     V07: -> downstream x=6.5914, z=0.0336
22:13:27 INFO:     hmax03: y->0.512, z->0.0500, distlimit->0.04
22:13:27 INFO:     hmax04: y->0.512, z->0.1250, distlimit->0.04
22:13:27 INFO:     hmax05: y->0.512, z->0.1625, distlimit->0.04
22:13:27 INFO:   Gauges reubicados: 12 velocity, 8 maxz
22:13:27 INFO:   XML generado: C:\Users\Admin\Desktop\SPH-Tesis\cases\smoke_fix_geom_dp0004\smoke_fix_geom_dp0004_Def.xml
22:13:27 INFO: Generando canal: L_flat=6.0m, L_ramp=9.0m, slope=1:20, H_ramp=0.4500m, L_end=15.0m, W=1.0m, H=1.5m
22:13:27 INFO:   Canal: 10 verts, 12 faces, watertight=False
22:13:27 INFO:   STL guardado: C:\Users\Admin\Desktop\SPH-Tesis\cases\smoke_fix_geom_dp0004\canal_1to20.stl
22:13:27 INFO:   Archivos copiados a C:\Users\Admin\Desktop\SPH-Tesis\cases\smoke_fix_geom_dp0004
22:13:27 INFO:   PNG verificacion: C:\Users\Admin\Desktop\SPH-Tesis\cases\smoke_fix_geom_dp0004\canal_verificacion.png
22:13:27 INFO:   [1/3] Geometry OK
22:13:27 INFO:   Timeout: sin limite (dp=0.004)
22:13:27 INFO: === Ejecutando caso: smoke_fix_geom_dp0004 ===
22:13:27 INFO:   [smoke_fix_geom_dp0004] GenCase: C:\DualSPHysics_v5.4.3\DualSPHysics_v5.4\bin\windows\GenCase_win64.exe smoke_fix_geom_dp0004_Def smoke_fix_geom_dp0004_out/smoke_fix_geom_dp0004 -save:all
22:13:30 INFO:   [smoke_fix_geom_dp0004] DualSPHysics: C:\DualSPHysics_v5.4.3\DualSPHysics_v5.4\bin\windows\DualSPHysics5.4_win64.exe -gpu:0 smoke_fix_geom_dp0004_out/smoke_fix_geom_dp0004 smoke_fix_geom_dp0004_out
22:14:22 INFO:   [smoke_fix_geom_dp0004] Limpieza desactivada (cleanup_binaries=false)
22:14:22 INFO:   [smoke_fix_geom_dp0004] Duracion total: 55.5s
